ligand-5kir
  PyMOL2.3          3D                             0

 93100  0  0  0  0  0  0  0  0999 V2000
   37.6740   13.0650   33.5030 N   0  0  0  0  0  0  0  0  0  0  0  0
   36.7260   14.1790   33.5820 C   0  0  0  0  0  0  0  0  0  0  0  0
   36.2020   14.4250   35.0010 C   0  0  0  0  0  0  0  0  0  0  0  0
   35.4840   15.3970   35.2390 O   0  0  0  0  0  0  0  0  0  0  0  0
   35.5540   13.9650   32.6150 C   0  0  0  0  0  0  0  0  0  0  0  0
   34.8910   12.6190   32.7180 C   0  0  0  0  0  0  0  0  0  0  0  0
   34.0660   12.3110   33.7850 C   0  0  0  0  0  0  0  0  0  0  0  0
   35.0580   11.6770   31.7150 C   0  0  0  0  0  0  0  0  0  0  0  0
   33.4430   11.0790   33.8640 C   0  0  0  0  0  0  0  0  0  0  0  0
   34.4360   10.4450   31.7890 C   0  0  0  0  0  0  0  0  0  0  0  0
   33.6270   10.1470   32.8630 C   0  0  0  0  0  0  0  0  0  0  0  0
   37.3840   12.3300   33.8440 H   0  0  0  0  0  0  0  0  0  0  0  0
   37.1850   14.9860   33.3030 H   0  0  0  0  0  0  0  0  0  0  0  0
   34.8790   14.6390   32.7920 H   0  0  0  0  0  0  0  0  0  0  0  0
   35.8810   14.0620   31.7070 H   0  0  0  0  0  0  0  0  0  0  0  0
   33.9380   12.9360   34.4620 H   0  0  0  0  0  0  0  0  0  0  0  0
   35.6030   11.8730   30.9880 H   0  0  0  0  0  0  0  0  0  0  0  0
   32.8980   10.8800   34.5900 H   0  0  0  0  0  0  0  0  0  0  0  0
   34.5640    9.8180   31.1140 H   0  0  0  0  0  0  0  0  0  0  0  0
   33.2100    9.3170   32.9170 H   0  0  0  0  0  0  0  0  0  0  0  0
   40.0750   11.8770   46.8670 C   0  0  0  0  0  0  0  0  0  0  0  0
   41.6620    2.0930   45.6090 C   0  0  0  0  0  0  0  0  0  0  0  0
   35.4450    3.9190   40.5220 C   0  0  0  0  0  0  0  0  0  0  0  0
   36.0430   11.8420   43.2670 C   0  0  0  0  0  0  0  0  0  0  0  0
   39.1820    8.1770   45.8060 N   0  0  0  0  0  0  0  0  0  0  0  0
   39.4040   12.1850   48.2040 C   0  0  0  0  0  0  0  0  0  0  0  0
   41.5550    1.2930   44.5580 C   0  0  0  0  0  0  0  0  0  0  0  0
   34.4360    4.6290   40.0460 C   0  0  0  0  0  0  0  0  0  0  0  0
   37.2590   12.4120   42.5210 C   0  0  0  0  0  0  0  0  0  0  0  0
   39.6450    5.4690   45.4040 N   0  0  0  0  0  0  0  0  0  0  0  0
   38.5180   13.4130   48.1690 C   0  0  0  0  0  0  0  0  0  0  0  0
   37.3260   13.9210   42.5370 C   0  0  0  0  0  0  0  0  0  0  0  0
   37.4660    8.2400   43.6260 N   0  0  0  0  0  0  0  0  0  0  0  0
   38.1170   10.3510   44.9460 C   0  0  0  0  0  0  0  0  0  0  0  0
   41.0220    6.8730   47.0900 C   0  0  0  0  0  0  0  0  0  0  0  0
   39.1040    3.4260   43.9550 C   0  0  0  0  0  0  0  0  0  0  0  0
   35.9440    6.8480   42.0800 C   0  0  0  0  0  0  0  0  0  0  0  0
   41.9510    9.5450   48.2570 C   0  0  0  0  0  0  0  0  0  0  0  0
   42.7620    4.3550   47.5650 C   0  0  0  0  0  0  0  0  0  0  0  0
   37.5330    1.8740   41.8130 C   0  0  0  0  0  0  0  0  0  0  0  0
   34.5340    9.5420   41.3670 C   0  0  0  0  0  0  0  0  0  0  0  0
   39.1170    9.6470   45.7010 C   0  0  0  0  0  0  0  0  0  0  0  0
   40.8140    5.6880   46.2930 C   0  0  0  0  0  0  0  0  0  0  0  0
   38.1150    4.1130   43.1710 C   0  0  0  0  0  0  0  0  0  0  0  0
   36.2700    8.0510   42.7990 C   0  0  0  0  0  0  0  0  0  0  0  0
   38.0670   13.8370   47.0790 O   0  0  0  0  0  0  0  0  0  0  0  0
   36.5170   14.5550   43.2440 O   0  0  0  0  0  0  0  0  0  0  0  0
   40.0020   10.3890   46.6350 C   0  0  0  0  0  0  0  0  0  0  0  0
   41.6090    4.4720   46.5990 C   0  0  0  0  0  0  0  0  0  0  0  0
   37.3440    3.3320   42.1690 C   0  0  0  0  0  0  0  0  0  0  0  0
   35.6440    9.3350   42.3710 C   0  0  0  0  0  0  0  0  0  0  0  0
   38.2520   13.9570   49.2630 O   0  0  0  0  0  0  0  0  0  0  0  0
   38.2080   14.4700   41.8340 O   0  0  0  0  0  0  0  0  0  0  0  0
   40.8430    9.3530   47.2570 C   0  0  0  0  0  0  0  0  0  0  0  0
   41.0320    3.4410   45.7150 C   0  0  0  0  0  0  0  0  0  0  0  0
   36.4110    4.3220   41.5920 C   0  0  0  0  0  0  0  0  0  0  0  0
   36.2850   10.3610   43.2240 C   0  0  0  0  0  0  0  0  0  0  0  0
   40.3230    8.0650   46.7380 C   0  0  0  0  0  0  0  0  0  0  0  0
   39.9500    4.1010   44.9180 C   0  0  0  0  0  0  0  0  0  0  0  0
   36.6850    5.6230   42.2850 C   0  0  0  0  0  0  0  0  0  0  0  0
   37.2420    9.6220   44.0720 C   0  0  0  0  0  0  0  0  0  0  0  0
   38.5780    6.8590   44.4770 Co  0  0  0  0  0  0  0  0  0  0  0  0
   37.6320    5.4740   43.4260 N   0  0  0  0  0  0  0  0  0  0  0  0
   39.5640   12.4070   46.0610 H   0  0  0  0  0  0  0  0  0  0  0  0
   41.1170   12.2020   46.8880 H   0  0  0  0  0  0  0  0  0  0  0  0
   42.4240    1.8300   46.3170 H   0  0  0  0  0  0  0  0  0  0  0  0
   35.5210    2.9080   40.1630 H   0  0  0  0  0  0  0  0  0  0  0  0
   36.0110   12.2040   44.2960 H   0  0  0  0  0  0  0  0  0  0  0  0
   35.1140   12.1020   42.7570 H   0  0  0  0  0  0  0  0  0  0  0  0
   38.8030   11.3240   48.5050 H   0  0  0  0  0  0  0  0  0  0  0  0
   40.1750   12.3270   48.9630 H   0  0  0  0  0  0  0  0  0  0  0  0
   40.8540    1.5270   43.7750 H   0  0  0  0  0  0  0  0  0  0  0  0
   42.0840    0.3550   44.5420 H   0  0  0  0  0  0  0  0  0  0  0  0
   34.2850    5.6420   40.3810 H   0  0  0  0  0  0  0  0  0  0  0  0
   33.7960    4.2130   39.2860 H   0  0  0  0  0  0  0  0  0  0  0  0
   38.1700   12.0120   42.9710 H   0  0  0  0  0  0  0  0  0  0  0  0
   37.2310   12.0700   41.4840 H   0  0  0  0  0  0  0  0  0  0  0  0
   38.0180   11.4180   45.0370 H   0  0  0  0  0  0  0  0  0  0  0  0
   41.8250    6.9410   47.8050 H   0  0  0  0  0  0  0  0  0  0  0  0
   39.2860    2.3860   43.7490 H   0  0  0  0  0  0  0  0  0  0  0  0
   35.1660    6.8810   41.3370 H   0  0  0  0  0  0  0  0  0  0  0  0
   42.0960   10.5800   48.4300 H   0  0  0  0  0  0  0  0  0  0  0  0
   42.8450    9.1220   47.8780 H   0  0  0  0  0  0  0  0  0  0  0  0
   41.6930    9.0680   49.1670 H   0  0  0  0  0  0  0  0  0  0  0  0
   43.1480    3.3690   47.5360 H   0  0  0  0  0  0  0  0  0  0  0  0
   42.4260    4.5740   48.5450 H   0  0  0  0  0  0  0  0  0  0  0  0
   43.5220    5.0400   47.2910 H   0  0  0  0  0  0  0  0  0  0  0  0
   36.8640    1.6110   41.0350 H   0  0  0  0  0  0  0  0  0  0  0  0
   38.5290    1.7150   41.4910 H   0  0  0  0  0  0  0  0  0  0  0  0
   37.3370    1.2750   42.6640 H   0  0  0  0  0  0  0  0  0  0  0  0
   34.9510    9.7600   40.4190 H   0  0  0  0  0  0  0  0  0  0  0  0
   33.9220   10.3490   41.6780 H   0  0  0  0  0  0  0  0  0  0  0  0
   33.9490    8.6610   41.3010 H   0  0  0  0  0  0  0  0  0  0  0  0
  1  2  1  0  0  0  0
  1 12  1  0  0  0  0
  2  3  1  0  0  0  0
  2  5  1  0  0  0  0
  2 13  1  0  0  0  0
  3  4  2  0  0  0  0
  5  6  1  0  0  0  0
  5 14  1  0  0  0  0
  5 15  1  0  0  0  0
  6  7  2  0  0  0  0
  6  8  1  0  0  0  0
  7  9  1  0  0  0  0
  7 16  1  0  0  0  0
  8 10  2  0  0  0  0
  8 17  1  0  0  0  0
  9 11  2  0  0  0  0
  9 18  1  0  0  0  0
 10 11  1  0  0  0  0
 10 19  1  0  0  0  0
 11 20  1  0  0  0  0
 21 26  1  0  0  0  0
 21 64  1  0  0  0  0
 21 65  1  0  0  0  0
 22 27  1  0  0  0  0
 22 66  1  0  0  0  0
 23 28  1  0  0  0  0
 23 67  1  0  0  0  0
 24 29  1  0  0  0  0
 24 68  1  0  0  0  0
 24 69  1  0  0  0  0
 25 42  4  0  0  0  0
 25 58  4  0  0  0  0
 26 31  1  0  0  0  0
 26 70  1  0  0  0  0
 26 71  1  0  0  0  0
 27 72  1  0  0  0  0
 27 73  1  0  0  0  0
 28 74  1  0  0  0  0
 28 75  1  0  0  0  0
 29 32  1  0  0  0  0
 29 76  1  0  0  0  0
 29 77  1  0  0  0  0
 30 43  4  0  0  0  0
 30 59  4  0  0  0  0
 31 46  4  0  0  0  0
 31 52  4  0  0  0  0
 32 47  4  0  0  0  0
 32 53  4  0  0  0  0
 33 45  4  0  0  0  0
 33 61  4  0  0  0  0
 34 42  1  0  0  0  0
 34 61  1  0  0  0  0
 34 78  1  0  0  0  0
 35 43  1  0  0  0  0
 35 58  1  0  0  0  0
 35 79  1  0  0  0  0
 36 44  1  0  0  0  0
 36 59  1  0  0  0  0
 36 80  1  0  0  0  0
 37 45  4  0  0  0  0
 37 60  4  0  0  0  0
 37 81  1  0  0  0  0
 38 82  1  0  0  0  0
 38 83  1  0  0  0  0
 38 84  1  0  0  0  0
 39 85  1  0  0  0  0
 39 86  1  0  0  0  0
 39 87  1  0  0  0  0
 40 88  1  0  0  0  0
 40 89  1  0  0  0  0
 40 90  1  0  0  0  0
 41 91  1  0  0  0  0
 41 92  1  0  0  0  0
 41 93  1  0  0  0  0
 42 48  4  0  0  0  0
 43 49  4  0  0  0  0
 44 50  4  0  0  0  0
 45 51  4  0  0  0  0
 21 48  1  0  0  0  0
 48 54  4  0  0  0  0
 39 49  1  0  0  0  0
 49 55  4  0  0  0  0
 40 50  1  0  0  0  0
 50 56  4  0  0  0  0
 41 51  1  0  0  0  0
 51 57  4  0  0  0  0
 38 54  1  0  0  0  0
 54 58  4  0  0  0  0
 22 55  1  0  0  0  0
 55 59  4  0  0  0  0
 23 56  1  0  0  0  0
 56 60  4  0  0  0  0
 24 57  1  0  0  0  0
 57 61  4  0  0  0  0
 25 62  1  0  0  0  0
 30 62  1  0  0  0  0
 33 62  1  0  0  0  0
 62 63  1  0  0  0  0
 44 63  4  0  0  0  0
 60 63  4  0  0  0  0
M  END
>  <pdb_header>


$$$$
