REMARK  16 active torsions:
REMARK  status: ('A' for Active; 'I' for Inactive)
REMARK    1  A    between atoms: C2_2  and  N2_3 
REMARK       I    between atoms: N2_3  and  C7_12 
REMARK    2  A    between atoms: C3_4  and  O3_5 
REMARK    3  A    between atoms: C4_6  and  O4_7 
REMARK    4  A    between atoms: O4_7  and  C1_19 
REMARK    5  A    between atoms: C5_8  and  C6_10 
REMARK    6  A    between atoms: C6_10  and  O6_11 
REMARK    7  A    between atoms: C2_20  and  N2_21 
REMARK       I    between atoms: N2_21  and  C7_30 
REMARK    8  A    between atoms: C3_22  and  O3_23 
REMARK    9  A    between atoms: C4_24  and  O4_25 
REMARK   10  A    between atoms: O4_25  and  C1_37 
REMARK   11  A    between atoms: C5_26  and  C6_28 
REMARK   12  A    between atoms: C6_28  and  O6_29 
REMARK   13  A    between atoms: C2_38  and  O2_39 
REMARK   14  A    between atoms: C3_40  and  O3_41 
REMARK   15  A    between atoms: C4_42  and  O4_43 
REMARK   16  A    between atoms: C5_44  and  C6_46 
ROOT
HETATM    1  C1  NAG C   2      38.596  33.625  41.085  1.00 45.72     0.178 C 
HETATM    2  C2  NAG C   2      39.347  33.229  42.362  1.00 49.06     0.145 C 
HETATM    3  C3  NAG C   2      39.601  34.453  43.245  1.00 52.65     0.150 C 
HETATM    4  C4  NAG C   2      40.240  35.583  42.448  1.00 54.97     0.057 C 
HETATM    5  C5  NAG C   2      39.409  35.866  41.202  1.00 50.27     0.153 C 
HETATM    6  O5  NAG C   2      39.297  34.669  40.420  1.00 46.44    -0.373 OA
ENDROOT
BRANCH   1   7
HETATM    7  O4  NAG C   1      38.481  32.456  40.249  1.00 39.58     0.000 OA
HETATM    8  HO4 NAG C   1      38.901  31.680  40.150  1.00 47.49     0.000 HD
BRANCH   7   9
HETATM    9  C4  NAG C   1      37.403  32.535  39.322  1.00 34.44     0.057 C 
HETATM   10  C3  NAG C   1      37.916  32.293  37.908  1.00 34.15     0.150 C 
HETATM   11  C2  NAG C   1      36.756  32.187  36.908  1.00 32.59     0.145 C 
HETATM   12  C1  NAG C   1      35.708  31.181  37.403  1.00 28.24     0.178 C 
HETATM   13  O5  NAG C   1      35.296  31.527  38.729  1.00 32.77    -0.373 OA
HETATM   14  C5  NAG C   1      36.370  31.475  39.678  1.00 32.91     0.153 C 
BRANCH  10  15
HETATM   15  O3  NAG C   1      38.781  33.355  37.520  1.00 36.22    -0.393 OA
HETATM   16  HO3 NAG C   1      39.625  33.108  37.639  1.00 43.47     0.210 HD
ENDBRANCH  10  15
BRANCH  11  17
HETATM   17  N2  NAG C   1      37.255  31.803  35.597  1.00 32.25    -0.352 N 
HETATM   18  HN2 NAG C   1      37.450  30.924  35.452  1.00 38.70     0.163 HD
HETATM   19  C7  NAG C   1      37.459  32.667  34.595  1.00 31.56     0.214 C 
HETATM   20  O7  NAG C   1      37.226  33.867  34.710  1.00 31.67    -0.274 OA
HETATM   21  C8  NAG C   1      37.987  32.078  33.321  1.00 31.40     0.117 C 
ENDBRANCH  11  17
BRANCH  14  22
HETATM   22  C6  NAG C   1      35.762  31.664  41.048  1.00 33.57     0.196 C 
BRANCH  22  23
HETATM   23  O6  NAG C   1      34.823  32.730  41.059  1.00 38.40    -0.398 OA
HETATM   24  HO6 NAG C   1      34.446  32.784  41.861  1.00 46.08     0.209 HD
ENDBRANCH  22  23
ENDBRANCH  14  22
ENDBRANCH   7   9
ENDBRANCH   1   7
BRANCH   2  25
HETATM   25  N2  NAG C   2      38.605  32.221  43.104  1.00 46.80    -0.352 N 
HETATM   26  HN2 NAG C   2      37.932  32.499  43.654  1.00 56.16     0.163 HD
HETATM   27  C7  NAG C   2      38.859  30.910  43.028  1.00 45.80     0.214 C 
HETATM   28  O7  NAG C   2      39.749  30.457  42.311  1.00 44.31    -0.274 OA
HETATM   29  C8  NAG C   2      37.989  30.025  43.870  1.00 43.27     0.117 C 
ENDBRANCH   2  25
BRANCH   3  30
HETATM   30  O3  NAG C   2      40.458  34.079  44.318  1.00 54.04    -0.393 OA
HETATM   31  HO3 NAG C   2      40.140  34.408  45.079  1.00 64.84     0.210 HD
ENDBRANCH   3  30
BRANCH   5  32
HETATM   32  C6  NAG C   2      40.018  36.919  40.306  1.00 49.47     0.196 C 
BRANCH  32  33
HETATM   33  O6  NAG C   2      40.906  36.343  39.358  1.00 49.56    -0.398 OA
HETATM   34  HO6 NAG C   2      41.107  36.945  38.737  1.00 59.47     0.209 HD
ENDBRANCH  32  33
ENDBRANCH   5  32
BRANCH   4  35
HETATM   35  O4  NAG C   2      40.289  36.760  43.247  1.00 61.24     0.000 OA
HETATM   36  HO4 NAG C   2      39.480  37.125  43.287  1.00 73.48     0.000 HD
BRANCH  35  37
HETATM   37  C1  MAN C   3      41.593  37.016  43.819  1.00 61.12     0.185 C 
HETATM   38  C2  MAN C   3      41.350  37.886  45.066  1.00 64.56     0.181 C 
HETATM   39  C3  MAN C   3      41.570  39.344  44.700  1.00 65.99     0.180 C 
HETATM   40  C4  MAN C   3      43.043  39.578  44.371  1.00 63.78     0.180 C 
HETATM   41  C5  MAN C   3      43.527  38.572  43.294  1.00 60.29     0.180 C 
HETATM   42  O5  MAN C   3      42.463  37.627  42.857  1.00 59.70    -0.370 OA
BRANCH  38  43
HETATM   43  O2  MAN C   3      42.284  37.583  46.111  1.00 65.84    -0.390 OA
HETATM   44  HO2 MAN C   3      41.804  37.227  46.869  1.00 79.01     0.210 HD
ENDBRANCH  38  43
BRANCH  39  45
HETATM   45  O3  MAN C   3      41.138  40.234  45.731  1.00 68.47    -0.390 OA
HETATM   46  HO3 MAN C   3      40.341  40.665  45.380  1.00 82.16     0.210 HD
ENDBRANCH  39  45
BRANCH  40  47
HETATM   47  O4  MAN C   3      43.228  40.909  43.893  1.00 64.75    -0.390 OA
HETATM   48  HO4 MAN C   3      42.580  41.017  43.179  1.00 77.70     0.210 HD
ENDBRANCH  40  47
BRANCH  41  49
HETATM   49  C6  MAN C   3      44.734  37.766  43.744  1.00 61.73     0.244 C 
HETATM   50  O6  MAN C   3      45.869  38.625  43.669  1.00 62.74    -0.238 OA
ENDBRANCH  41  49
ENDBRANCH  35  37
ENDBRANCH   4  35
TORSDOF 16
