MODEL 1
REMARK VINA RESULT:    -8.033      0.000      0.000
REMARK INTER + INTRA:         -15.402
REMARK INTER:                 -12.898
REMARK INTRA:                  -2.503
REMARK UNBOUND:                -1.498
REMARK  16 active torsions:
REMARK  status: ('A' for Active; 'I' for Inactive)
REMARK    1  A    between atoms: C2_2  and  N2_3 
REMARK       I    between atoms: N2_3  and  C7_12 
REMARK    2  A    between atoms: C3_4  and  O3_5 
REMARK    3  A    between atoms: C4_6  and  O4_7 
REMARK    4  A    between atoms: O4_7  and  C1_19 
REMARK    5  A    between atoms: C5_8  and  C6_10 
REMARK    6  A    between atoms: C6_10  and  O6_11 
REMARK    7  A    between atoms: C2_20  and  N2_21 
REMARK       I    between atoms: N2_21  and  C7_30 
REMARK    8  A    between atoms: C3_22  and  O3_23 
REMARK    9  A    between atoms: C4_24  and  O4_25 
REMARK   10  A    between atoms: O4_25  and  C1_37 
REMARK   11  A    between atoms: C5_26  and  C6_28 
REMARK   12  A    between atoms: C6_28  and  O6_29 
REMARK   13  A    between atoms: C2_38  and  O2_39 
REMARK   14  A    between atoms: C3_40  and  O3_41 
REMARK   15  A    between atoms: C4_42  and  O4_43 
REMARK   16  A    between atoms: C5_44  and  C6_46 
ROOT
HETATM    1  C1  NAG C   2      39.498  12.555  44.397  1.00 45.72     0.178 C 
HETATM    2  C2  NAG C   2      39.022  13.008  43.012  1.00 49.06     0.145 C 
HETATM    3  C3  NAG C   2      40.213  13.292  42.093  1.00 52.65     0.150 C 
HETATM    4  C4  NAG C   2      41.215  14.222  42.765  1.00 54.97     0.057 C 
HETATM    5  C5  NAG C   2      41.592  13.668  44.134  1.00 50.27     0.153 C 
HETATM    6  O5  NAG C   2      40.409  13.510  44.928  1.00 46.44    -0.373 OA
ENDROOT
BRANCH   1   7
HETATM    7  O4  NAG C   1      38.341  12.407  45.245  1.00 39.58     0.000 OA
HETATM    8  HO4 NAG C   1      37.791  11.755  45.491  1.00 47.49     0.000 HD
BRANCH   7   9
HETATM    9  C4  NAG C   1      37.955  13.621  45.881  1.00 34.44     0.057 C 
HETATM   10  C3  NAG C   1      36.502  13.940  45.550  1.00 34.15     0.150 C 
HETATM   11  C2  NAG C   1      35.999  15.139  46.366  1.00 32.59     0.145 C 
HETATM   12  C1  NAG C   1      36.299  14.940  47.858  1.00 28.24     0.178 C 
HETATM   13  O5  NAG C   1      37.692  14.666  48.036  1.00 32.77    -0.373 OA
HETATM   14  C5  NAG C   1      38.111  13.458  47.386  1.00 32.91     0.153 C 
BRANCH  10  15
HETATM   15  O3  NAG C   1      36.375  14.225  44.161  1.00 36.22    -0.393 OA
HETATM   16  HO3 NAG C   1      36.062  15.048  44.055  1.00 43.47     0.210 HD
ENDBRANCH  10  15
BRANCH  11  17
HETATM   17  N2  NAG C   1      34.573  15.330  46.152  1.00 32.25    -0.352 N 
HETATM   18  HN2 NAG C   1      33.993  14.819  46.637  1.00 38.70     0.163 HD
HETATM   19  C7  NAG C   1      34.061  16.202  45.275  1.00 31.56     0.214 C 
HETATM   20  O7  NAG C   1      34.772  16.924  44.582  1.00 31.67    -0.274 OA
HETATM   21  C8  NAG C   1      32.564  16.246  45.194  1.00 31.40     0.117 C 
ENDBRANCH  11  17
BRANCH  14  22
HETATM   22  C6  NAG C   1      39.533  13.190  47.818  1.00 33.57     0.196 C 
BRANCH  22  23
HETATM   23  O6  NAG C   1      40.359  14.330  47.627  1.00 38.40    -0.398 OA
HETATM   24  HO6 NAG C   1      40.394  14.529  46.762  1.00 46.08     0.209 HD
ENDBRANCH  22  23
ENDBRANCH  14  22
ENDBRANCH   7   9
ENDBRANCH   1   7
BRANCH   2  25
HETATM   25  N2  NAG C   2      38.154  12.006  42.412  1.00 46.80    -0.352 N 
HETATM   26  HN2 NAG C   2      38.356  11.126  42.544  1.00 56.16     0.163 HD
HETATM   27  C7  NAG C   2      37.080  12.304  41.672  1.00 45.80     0.214 C 
HETATM   28  O7  NAG C   2      36.743  13.465  41.447  1.00 44.31    -0.274 OA
HETATM   29  C8  NAG C   2      36.310  11.135  41.135  1.00 43.27     0.117 C 
ENDBRANCH   2  25
BRANCH   3  30
HETATM   30  O3  NAG C   2      39.738  13.887  40.891  1.00 54.04    -0.393 OA
HETATM   31  HO3 NAG C   2      40.093  13.468  40.193  1.00 64.84     0.210 HD
ENDBRANCH   3  30
BRANCH   5  32
HETATM   32  C6  NAG C   2      42.521  14.574  44.908  1.00 49.47     0.196 C 
BRANCH  32  33
HETATM   33  O6  NAG C   2      43.883  14.254  44.661  1.00 49.56    -0.398 OA
HETATM   34  HO6 NAG C   2      44.154  13.642  45.244  1.00 59.47     0.209 HD
ENDBRANCH  32  33
ENDBRANCH   5  32
BRANCH   4  35
HETATM   35  O4  NAG C   2      42.389  14.314  41.965  1.00 61.24     0.000 OA
HETATM   36  HO4 NAG C   2      42.648  13.499  41.724  1.00 73.48     0.000 HD
BRANCH  35  37
HETATM   37  C1  MAN C   3      42.809  15.674  41.709  1.00 61.12     0.185 C 
HETATM   38  C2  MAN C   3      42.609  15.908  40.200  1.00 64.56     0.181 C 
HETATM   39  C3  MAN C   3      43.935  15.696  39.489  1.00 65.99     0.180 C 
HETATM   40  C4  MAN C   3      44.923  16.785  39.901  1.00 63.78     0.180 C 
HETATM   41  C5  MAN C   3      45.036  16.862  41.446  1.00 60.29     0.180 C 
HETATM   42  O5  MAN C   3      44.159  15.883  42.145  1.00 59.70    -0.370 OA
BRANCH  38  43
HETATM   43  O2  MAN C   3      42.210  17.257  39.924  1.00 65.84    -0.390 OA
HETATM   44  HO2 MAN C   3      41.753  17.282  39.074  1.00 79.01     0.210 HD
ENDBRANCH  38  43
BRANCH  39  45
HETATM   45  O3  MAN C   3      43.789  15.661  38.068  1.00 68.47    -0.390 OA
HETATM   46  HO3 MAN C   3      43.259  14.868  37.884  1.00 82.16     0.210 HD
ENDBRANCH  39  45
BRANCH  40  47
HETATM   47  O4  MAN C   3      46.208  16.511  39.345  1.00 64.75    -0.390 OA
HETATM   48  HO4 MAN C   3      46.685  16.021  40.034  1.00 77.70     0.210 HD
ENDBRANCH  40  47
BRANCH  41  49
HETATM   49  C6  MAN C   3      44.738  18.250  41.988  1.00 61.73     0.244 C 
HETATM   50  O6  MAN C   3      45.034  19.183  40.951  1.00 62.74    -0.238 OA
ENDBRANCH  41  49
ENDBRANCH  35  37
ENDBRANCH   4  35
TORSDOF 16
ENDMDL
MODEL 2
REMARK VINA RESULT:    -7.768      3.222      9.449
REMARK INTER + INTRA:         -14.942
REMARK INTER:                 -11.985
REMARK INTRA:                  -2.957
REMARK UNBOUND:                -1.498
REMARK  16 active torsions:
REMARK  status: ('A' for Active; 'I' for Inactive)
REMARK    1  A    between atoms: C2_2  and  N2_3 
REMARK       I    between atoms: N2_3  and  C7_12 
REMARK    2  A    between atoms: C3_4  and  O3_5 
REMARK    3  A    between atoms: C4_6  and  O4_7 
REMARK    4  A    between atoms: O4_7  and  C1_19 
REMARK    5  A    between atoms: C5_8  and  C6_10 
REMARK    6  A    between atoms: C6_10  and  O6_11 
REMARK    7  A    between atoms: C2_20  and  N2_21 
REMARK       I    between atoms: N2_21  and  C7_30 
REMARK    8  A    between atoms: C3_22  and  O3_23 
REMARK    9  A    between atoms: C4_24  and  O4_25 
REMARK   10  A    between atoms: O4_25  and  C1_37 
REMARK   11  A    between atoms: C5_26  and  C6_28 
REMARK   12  A    between atoms: C6_28  and  O6_29 
REMARK   13  A    between atoms: C2_38  and  O2_39 
REMARK   14  A    between atoms: C3_40  and  O3_41 
REMARK   15  A    between atoms: C4_42  and  O4_43 
REMARK   16  A    between atoms: C5_44  and  C6_46 
ROOT
HETATM    1  C1  NAG C   2      44.045  15.982  41.900  1.00 45.72     0.178 C 
HETATM    2  C2  NAG C   2      43.534  15.964  43.346  1.00 49.06     0.145 C 
HETATM    3  C3  NAG C   2      42.875  14.622  43.673  1.00 52.65     0.150 C 
HETATM    4  C4  NAG C   2      41.839  14.248  42.621  1.00 54.97     0.057 C 
HETATM    5  C5  NAG C   2      42.466  14.320  41.234  1.00 50.27     0.153 C 
HETATM    6  O5  NAG C   2      42.987  15.638  41.013  1.00 46.44    -0.373 OA
ENDROOT
BRANCH   1   7
HETATM    7  O4  NAG C   1      44.556  17.300  41.619  1.00 39.58     0.000 OA
HETATM    8  HO4 NAG C   1      44.403  18.132  41.890  1.00 47.49     0.000 HD
BRANCH   7   9
HETATM    9  C4  NAG C   1      45.599  17.301  40.649  1.00 34.44     0.057 C 
HETATM   10  C3  NAG C   1      45.177  18.117  39.434  1.00 34.15     0.150 C 
HETATM   11  C2  NAG C   1      46.344  18.293  38.452  1.00 32.59     0.145 C 
HETATM   12  C1  NAG C   1      47.591  18.808  39.183  1.00 28.24     0.178 C 
HETATM   13  O5  NAG C   1      47.891  17.949  40.287  1.00 32.77    -0.373 OA
HETATM   14  C5  NAG C   1      46.846  17.916  41.269  1.00 32.91     0.153 C 
BRANCH  10  15
HETATM   15  O3  NAG C   1      44.093  17.473  38.772  1.00 36.22    -0.393 OA
HETATM   16  HO3 NAG C   1      43.623  18.074  38.320  1.00 43.47     0.210 HD
ENDBRANCH  10  15
BRANCH  11  17
HETATM   17  N2  NAG C   1      45.967  19.201  37.380  1.00 32.25    -0.352 N 
HETATM   18  HN2 NAG C   1      46.104  20.094  37.505  1.00 38.70     0.163 HD
HETATM   19  C7  NAG C   1      45.418  18.803  36.225  1.00 31.56     0.214 C 
HETATM   20  O7  NAG C   1      45.198  17.621  35.980  1.00 31.67    -0.274 OA
HETATM   21  C8  NAG C   1      45.091  19.892  35.248  1.00 31.40     0.117 C 
ENDBRANCH  11  17
BRANCH  14  22
HETATM   22  C6  NAG C   1      47.373  17.142  42.454  1.00 33.57     0.196 C 
BRANCH  22  23
HETATM   23  O6  NAG C   1      47.044  15.763  42.364  1.00 38.40    -0.398 OA
HETATM   24  HO6 NAG C   1      46.724  15.483  43.143  1.00 46.08     0.209 HD
ENDBRANCH  22  23
ENDBRANCH  14  22
ENDBRANCH   7   9
ENDBRANCH   1   7
BRANCH   2  25
HETATM   25  N2  NAG C   2      44.620  16.230  44.278  1.00 46.80    -0.352 N 
HETATM   26  HN2 NAG C   2      45.181  15.543  44.493  1.00 56.16     0.163 HD
HETATM   27  C7  NAG C   2      44.835  17.424  44.841  1.00 45.80     0.214 C 
HETATM   28  O7  NAG C   2      44.123  18.397  44.604  1.00 44.31    -0.274 OA
HETATM   29  C8  NAG C   2      46.003  17.503  45.779  1.00 43.27     0.117 C 
ENDBRANCH   2  25
BRANCH   3  30
HETATM   30  O3  NAG C   2      42.251  14.713  44.949  1.00 54.04    -0.393 OA
HETATM   31  HO3 NAG C   2      41.827  13.953  45.126  1.00 64.84     0.210 HD
ENDBRANCH   3  30
BRANCH   5  32
HETATM   32  C6  NAG C   2      41.483  14.046  40.120  1.00 49.47     0.196 C 
BRANCH  32  33
HETATM   33  O6  NAG C   2      41.333  12.651  39.892  1.00 49.56    -0.398 OA
HETATM   34  HO6 NAG C   2      40.731  12.519  39.253  1.00 59.47     0.209 HD
ENDBRANCH  32  33
ENDBRANCH   5  32
BRANCH   4  35
HETATM   35  O4  NAG C   2      41.384  12.919  42.853  1.00 61.24     0.000 OA
HETATM   36  HO4 NAG C   2      41.999  12.342  42.572  1.00 73.48     0.000 HD
BRANCH  35  37
HETATM   37  C1  MAN C   3      40.102  12.855  43.521  1.00 61.12     0.185 C 
HETATM   38  C2  MAN C   3      39.262  11.830  42.738  1.00 64.56     0.181 C 
HETATM   39  C3  MAN C   3      38.365  12.572  41.762  1.00 65.99     0.180 C 
HETATM   40  C4  MAN C   3      37.326  13.386  42.531  1.00 63.78     0.180 C 
HETATM   41  C5  MAN C   3      38.016  14.298  43.579  1.00 60.29     0.180 C 
HETATM   42  O5  MAN C   3      39.498  14.153  43.594  1.00 59.70    -0.370 OA
BRANCH  38  43
HETATM   43  O2  MAN C   3      38.395  11.086  43.605  1.00 65.84    -0.390 OA
HETATM   44  HO2 MAN C   3      38.357  10.171  43.302  1.00 79.01     0.210 HD
ENDBRANCH  38  43
BRANCH  39  45
HETATM   45  O3  MAN C   3      37.727  11.691  40.834  1.00 68.47    -0.390 OA
HETATM   46  HO3 MAN C   3      36.979  12.197  40.475  1.00 82.16     0.210 HD
ENDBRANCH  39  45
BRANCH  40  47
HETATM   47  O4  MAN C   3      36.573  14.191  41.625  1.00 64.75    -0.390 OA
HETATM   48  HO4 MAN C   3      36.126  13.563  41.036  1.00 77.70     0.210 HD
ENDBRANCH  40  47
BRANCH  41  49
HETATM   49  C6  MAN C   3      37.494  14.072  44.988  1.00 61.73     0.244 C 
HETATM   50  O6  MAN C   3      36.579  12.981  44.930  1.00 62.74    -0.238 OA
ENDBRANCH  41  49
ENDBRANCH  35  37
ENDBRANCH   4  35
TORSDOF 16
ENDMDL
MODEL 3
REMARK VINA RESULT:    -7.540      2.493      4.304
REMARK INTER + INTRA:         -14.547
REMARK INTER:                 -11.890
REMARK INTRA:                  -2.658
REMARK UNBOUND:                -1.498
REMARK  16 active torsions:
REMARK  status: ('A' for Active; 'I' for Inactive)
REMARK    1  A    between atoms: C2_2  and  N2_3 
REMARK       I    between atoms: N2_3  and  C7_12 
REMARK    2  A    between atoms: C3_4  and  O3_5 
REMARK    3  A    between atoms: C4_6  and  O4_7 
REMARK    4  A    between atoms: O4_7  and  C1_19 
REMARK    5  A    between atoms: C5_8  and  C6_10 
REMARK    6  A    between atoms: C6_10  and  O6_11 
REMARK    7  A    between atoms: C2_20  and  N2_21 
REMARK       I    between atoms: N2_21  and  C7_30 
REMARK    8  A    between atoms: C3_22  and  O3_23 
REMARK    9  A    between atoms: C4_24  and  O4_25 
REMARK   10  A    between atoms: O4_25  and  C1_37 
REMARK   11  A    between atoms: C5_26  and  C6_28 
REMARK   12  A    between atoms: C6_28  and  O6_29 
REMARK   13  A    between atoms: C2_38  and  O2_39 
REMARK   14  A    between atoms: C3_40  and  O3_41 
REMARK   15  A    between atoms: C4_42  and  O4_43 
REMARK   16  A    between atoms: C5_44  and  C6_46 
ROOT
HETATM    1  C1  NAG C   2      39.575  12.545  44.585  1.00 45.72     0.178 C 
HETATM    2  C2  NAG C   2      39.028  13.028  43.236  1.00 49.06     0.145 C 
HETATM    3  C3  NAG C   2      40.169  13.298  42.252  1.00 52.65     0.150 C 
HETATM    4  C4  NAG C   2      41.231  14.196  42.874  1.00 54.97     0.057 C 
HETATM    5  C5  NAG C   2      41.676  13.615  44.211  1.00 50.27     0.153 C 
HETATM    6  O5  NAG C   2      40.538  13.472  45.072  1.00 46.44    -0.373 OA
ENDROOT
BRANCH   1   7
HETATM    7  O4  NAG C   1      38.467  12.412  45.498  1.00 39.58     0.000 OA
HETATM    8  HO4 NAG C   1      37.688  12.812  45.643  1.00 47.49     0.000 HD
BRANCH   7   9
HETATM    9  C4  NAG C   1      38.637  11.350  46.432  1.00 34.44     0.057 C 
HETATM   10  C3  NAG C   1      39.126  10.100  45.713  1.00 34.15     0.150 C 
HETATM   11  C2  NAG C   1      39.496   8.994  46.712  1.00 32.59     0.145 C 
HETATM   12  C1  NAG C   1      40.443   9.538  47.791  1.00 28.24     0.178 C 
HETATM   13  O5  NAG C   1      39.864  10.696  48.401  1.00 32.77    -0.373 OA
HETATM   14  C5  NAG C   1      39.663  11.773  47.475  1.00 32.91     0.153 C 
BRANCH  10  15
HETATM   15  O3  NAG C   1      38.115   9.623  44.832  1.00 36.22    -0.393 OA
HETATM   16  HO3 NAG C   1      38.164  10.059  44.060  1.00 43.47     0.210 HD
ENDBRANCH  10  15
BRANCH  11  17
HETATM   17  N2  NAG C   1      40.105   7.871  46.017  1.00 32.25    -0.352 N 
HETATM   18  HN2 NAG C   1      40.417   8.007  45.171  1.00 38.70     0.163 HD
HETATM   19  C7  NAG C   1      40.219   6.644  46.541  1.00 31.56     0.214 C 
HETATM   20  O7  NAG C   1      39.820   6.377  47.671  1.00 31.67    -0.274 OA
HETATM   21  C8  NAG C   1      40.869   5.616  45.664  1.00 31.40     0.117 C 
ENDBRANCH  11  17
BRANCH  14  22
HETATM   22  C6  NAG C   1      39.240  12.979  48.280  1.00 33.57     0.196 C 
BRANCH  22  23
HETATM   23  O6  NAG C   1      39.579  14.191  47.621  1.00 38.40    -0.398 OA
HETATM   24  HO6 NAG C   1      39.703  14.831  48.223  1.00 46.08     0.209 HD
ENDBRANCH  22  23
ENDBRANCH  14  22
ENDBRANCH   7   9
ENDBRANCH   1   7
BRANCH   2  25
HETATM   25  N2  NAG C   2      38.104  12.054  42.677  1.00 46.80    -0.352 N 
HETATM   26  HN2 NAG C   2      38.303  11.168  42.769  1.00 56.16     0.163 HD
HETATM   27  C7  NAG C   2      36.980  12.386  42.030  1.00 45.80     0.214 C 
HETATM   28  O7  NAG C   2      36.643  13.556  41.865  1.00 44.31    -0.274 OA
HETATM   29  C8  NAG C   2      36.156  11.241  41.522  1.00 43.27     0.117 C 
ENDBRANCH   2  25
BRANCH   3  30
HETATM   30  O3  NAG C   2      39.638  13.919  41.087  1.00 54.04    -0.393 OA
HETATM   31  HO3 NAG C   2      39.520  14.786  41.242  1.00 64.84     0.210 HD
ENDBRANCH   3  30
BRANCH   5  32
HETATM   32  C6  NAG C   2      42.669  14.489  44.940  1.00 49.47     0.196 C 
BRANCH  32  33
HETATM   33  O6  NAG C   2      44.006  14.096  44.663  1.00 49.56    -0.398 OA
HETATM   34  HO6 NAG C   2      44.549  14.444  45.273  1.00 59.47     0.209 HD
ENDBRANCH  32  33
ENDBRANCH   5  32
BRANCH   4  35
HETATM   35  O4  NAG C   2      42.357  14.272  42.006  1.00 61.24     0.000 OA
HETATM   36  HO4 NAG C   2      42.553  13.460  41.703  1.00 73.48     0.000 HD
BRANCH  35  37
HETATM   37  C1  MAN C   3      42.839  15.620  41.802  1.00 61.12     0.185 C 
HETATM   38  C2  MAN C   3      42.631  15.928  40.308  1.00 64.56     0.181 C 
HETATM   39  C3  MAN C   3      43.935  15.684  39.569  1.00 65.99     0.180 C 
HETATM   40  C4  MAN C   3      44.980  16.706  40.011  1.00 63.78     0.180 C 
HETATM   41  C5  MAN C   3      45.117  16.712  41.556  1.00 60.29     0.180 C 
HETATM   42  O5  MAN C   3      44.203  15.746  42.227  1.00 59.70    -0.370 OA
BRANCH  38  43
HETATM   43  O2  MAN C   3      42.293  17.305  40.095  1.00 65.84    -0.390 OA
HETATM   44  HO2 MAN C   3      41.599  17.360  39.427  1.00 79.01     0.210 HD
ENDBRANCH  38  43
BRANCH  39  45
HETATM   45  O3  MAN C   3      43.770  15.717  38.150  1.00 68.47    -0.390 OA
HETATM   46  HO3 MAN C   3      42.850  15.446  37.993  1.00 82.16     0.210 HD
ENDBRANCH  39  45
BRANCH  40  47
HETATM   47  O4  MAN C   3      46.243  16.395  39.425  1.00 64.75    -0.390 OA
HETATM   48  HO4 MAN C   3      46.047  15.763  38.716  1.00 77.70     0.210 HD
ENDBRANCH  40  47
BRANCH  41  49
HETATM   49  C6  MAN C   3      44.893  18.088  42.161  1.00 61.73     0.244 C 
HETATM   50  O6  MAN C   3      44.662  18.991  41.083  1.00 62.74    -0.238 OA
ENDBRANCH  41  49
ENDBRANCH  35  37
ENDBRANCH   4  35
TORSDOF 16
ENDMDL
MODEL 4
REMARK VINA RESULT:    -7.521      1.978      2.682
REMARK INTER + INTRA:         -14.515
REMARK INTER:                 -11.679
REMARK INTRA:                  -2.835
REMARK UNBOUND:                -1.498
REMARK  16 active torsions:
REMARK  status: ('A' for Active; 'I' for Inactive)
REMARK    1  A    between atoms: C2_2  and  N2_3 
REMARK       I    between atoms: N2_3  and  C7_12 
REMARK    2  A    between atoms: C3_4  and  O3_5 
REMARK    3  A    between atoms: C4_6  and  O4_7 
REMARK    4  A    between atoms: O4_7  and  C1_19 
REMARK    5  A    between atoms: C5_8  and  C6_10 
REMARK    6  A    between atoms: C6_10  and  O6_11 
REMARK    7  A    between atoms: C2_20  and  N2_21 
REMARK       I    between atoms: N2_21  and  C7_30 
REMARK    8  A    between atoms: C3_22  and  O3_23 
REMARK    9  A    between atoms: C4_24  and  O4_25 
REMARK   10  A    between atoms: O4_25  and  C1_37 
REMARK   11  A    between atoms: C5_26  and  C6_28 
REMARK   12  A    between atoms: C6_28  and  O6_29 
REMARK   13  A    between atoms: C2_38  and  O2_39 
REMARK   14  A    between atoms: C3_40  and  O3_41 
REMARK   15  A    between atoms: C4_42  and  O4_43 
REMARK   16  A    between atoms: C5_44  and  C6_46 
ROOT
HETATM    1  C1  NAG C   2      39.809  11.432  43.627  1.00 45.72     0.178 C 
HETATM    2  C2  NAG C   2      39.112  12.397  42.661  1.00 49.06     0.145 C 
HETATM    3  C3  NAG C   2      40.112  12.986  41.663  1.00 52.65     0.150 C 
HETATM    4  C4  NAG C   2      41.329  13.559  42.378  1.00 54.97     0.057 C 
HETATM    5  C5  NAG C   2      41.916  12.509  43.315  1.00 50.27     0.153 C 
HETATM    6  O5  NAG C   2      40.911  12.084  44.246  1.00 46.44    -0.373 OA
ENDROOT
BRANCH   1   7
HETATM    7  O4  NAG C   1      38.842  10.995  44.603  1.00 39.58     0.000 OA
HETATM    8  HO4 NAG C   1      38.086  10.529  44.611  1.00 47.49     0.000 HD
BRANCH   7   9
HETATM    9  C4  NAG C   1      39.165  11.400  45.930  1.00 34.44     0.057 C 
HETATM   10  C3  NAG C   1      38.225  12.513  46.375  1.00 34.15     0.150 C 
HETATM   11  C2  NAG C   1      38.423  12.845  47.861  1.00 32.59     0.145 C 
HETATM   12  C1  NAG C   1      38.371  11.568  48.710  1.00 28.24     0.178 C 
HETATM   13  O5  NAG C   1      39.308  10.613  48.203  1.00 32.77    -0.373 OA
HETATM   14  C5  NAG C   1      39.016  10.204  46.859  1.00 32.91     0.153 C 
BRANCH  10  15
HETATM   15  O3  NAG C   1      38.455  13.681  45.594  1.00 36.22    -0.393 OA
HETATM   16  HO3 NAG C   1      39.311  13.906  45.643  1.00 43.47     0.210 HD
ENDBRANCH  10  15
BRANCH  11  17
HETATM   17  N2  NAG C   1      37.415  13.796  48.303  1.00 32.25    -0.352 N 
HETATM   18  HN2 NAG C   1      36.538  13.572  48.197  1.00 38.70     0.163 HD
HETATM   19  C7  NAG C   1      37.701  14.987  48.844  1.00 31.56     0.214 C 
HETATM   20  O7  NAG C   1      38.856  15.365  49.017  1.00 31.67    -0.274 OA
HETATM   21  C8  NAG C   1      36.521  15.830  49.229  1.00 31.40     0.117 C 
ENDBRANCH  11  17
BRANCH  14  22
HETATM   22  C6  NAG C   1      39.951   9.065  46.528  1.00 33.57     0.196 C 
BRANCH  22  23
HETATM   23  O6  NAG C   1      39.397   8.206  45.541  1.00 38.40    -0.398 OA
HETATM   24  HO6 NAG C   1      39.488   8.579  44.740  1.00 46.08     0.209 HD
ENDBRANCH  22  23
ENDBRANCH  14  22
ENDBRANCH   7   9
ENDBRANCH   1   7
BRANCH   2  25
HETATM   25  N2  NAG C   2      38.032  11.727  41.952  1.00 46.80    -0.352 N 
HETATM   26  HN2 NAG C   2      38.233  11.285  41.179  1.00 56.16     0.163 HD
HETATM   27  C7  NAG C   2      36.761  11.727  42.368  1.00 45.80     0.214 C 
HETATM   28  O7  NAG C   2      36.410  12.300  43.398  1.00 44.31    -0.274 OA
HETATM   29  C8  NAG C   2      35.789  10.983  41.502  1.00 43.27     0.117 C 
ENDBRANCH   2  25
BRANCH   3  30
HETATM   30  O3  NAG C   2      39.469  14.011  40.914  1.00 54.04    -0.393 OA
HETATM   31  HO3 NAG C   2      38.998  14.526  41.462  1.00 64.84     0.210 HD
ENDBRANCH   3  30
BRANCH   5  32
HETATM   32  C6  NAG C   2      43.079  13.022  44.131  1.00 49.47     0.196 C 
BRANCH  32  33
HETATM   33  O6  NAG C   2      42.826  14.327  44.632  1.00 49.56    -0.398 OA
HETATM   34  HO6 NAG C   2      43.472  14.876  44.367  1.00 59.47     0.209 HD
ENDBRANCH  32  33
ENDBRANCH   5  32
BRANCH   4  35
HETATM   35  O4  NAG C   2      42.315  13.924  41.419  1.00 61.24     0.000 OA
HETATM   36  HO4 NAG C   2      42.528  13.215  40.928  1.00 73.48     0.000 HD
BRANCH  35  37
HETATM   37  C1  MAN C   3      42.662  15.329  41.453  1.00 61.12     0.185 C 
HETATM   38  C2  MAN C   3      42.713  15.792  39.986  1.00 64.56     0.181 C 
HETATM   39  C3  MAN C   3      44.157  15.769  39.512  1.00 65.99     0.180 C 
HETATM   40  C4  MAN C   3      44.963  16.828  40.260  1.00 63.78     0.180 C 
HETATM   41  C5  MAN C   3      44.794  16.661  41.793  1.00 60.29     0.180 C 
HETATM   42  O5  MAN C   3      43.891  15.536  42.161  1.00 59.70    -0.370 OA
BRANCH  38  43
HETATM   43  O2  MAN C   3      42.260  17.145  39.843  1.00 65.84    -0.390 OA
HETATM   44  HO2 MAN C   3      41.309  17.142  39.675  1.00 79.01     0.210 HD
ENDBRANCH  38  43
BRANCH  39  45
HETATM   45  O3  MAN C   3      44.269  15.956  38.100  1.00 68.47    -0.390 OA
HETATM   46  HO3 MAN C   3      45.007  16.576  37.982  1.00 82.16     0.210 HD
ENDBRANCH  39  45
BRANCH  40  47
HETATM   47  O4  MAN C   3      46.344  16.716  39.921  1.00 64.75    -0.390 OA
HETATM   48  HO4 MAN C   3      46.696  17.618  39.978  1.00 77.70     0.210 HD
ENDBRANCH  40  47
BRANCH  41  49
HETATM   49  C6  MAN C   3      44.292  17.925  42.470  1.00 61.73     0.244 C 
HETATM   50  O6  MAN C   3      44.089  18.900  41.450  1.00 62.74    -0.238 OA
ENDBRANCH  41  49
ENDBRANCH  35  37
ENDBRANCH   4  35
TORSDOF 16
ENDMDL
MODEL 5
REMARK VINA RESULT:    -7.412      2.445      4.230
REMARK INTER + INTRA:         -14.326
REMARK INTER:                 -11.684
REMARK INTRA:                  -2.643
REMARK UNBOUND:                -1.498
REMARK  16 active torsions:
REMARK  status: ('A' for Active; 'I' for Inactive)
REMARK    1  A    between atoms: C2_2  and  N2_3 
REMARK       I    between atoms: N2_3  and  C7_12 
REMARK    2  A    between atoms: C3_4  and  O3_5 
REMARK    3  A    between atoms: C4_6  and  O4_7 
REMARK    4  A    between atoms: O4_7  and  C1_19 
REMARK    5  A    between atoms: C5_8  and  C6_10 
REMARK    6  A    between atoms: C6_10  and  O6_11 
REMARK    7  A    between atoms: C2_20  and  N2_21 
REMARK       I    between atoms: N2_21  and  C7_30 
REMARK    8  A    between atoms: C3_22  and  O3_23 
REMARK    9  A    between atoms: C4_24  and  O4_25 
REMARK   10  A    between atoms: O4_25  and  C1_37 
REMARK   11  A    between atoms: C5_26  and  C6_28 
REMARK   12  A    between atoms: C6_28  and  O6_29 
REMARK   13  A    between atoms: C2_38  and  O2_39 
REMARK   14  A    between atoms: C3_40  and  O3_41 
REMARK   15  A    between atoms: C4_42  and  O4_43 
REMARK   16  A    between atoms: C5_44  and  C6_46 
ROOT
HETATM    1  C1  NAG C   2      39.750  12.186  44.079  1.00 45.72     0.178 C 
HETATM    2  C2  NAG C   2      39.450  13.674  43.861  1.00 49.06     0.145 C 
HETATM    3  C3  NAG C   2      40.236  14.218  42.666  1.00 52.65     0.150 C 
HETATM    4  C4  NAG C   2      41.715  13.870  42.777  1.00 54.97     0.057 C 
HETATM    5  C5  NAG C   2      41.874  12.372  43.007  1.00 50.27     0.153 C 
HETATM    6  O5  NAG C   2      41.155  11.991  44.188  1.00 46.44    -0.373 OA
ENDROOT
BRANCH   1   7
HETATM    7  O4  NAG C   1      39.068  11.759  45.275  1.00 39.58     0.000 OA
HETATM    8  HO4 NAG C   1      38.881  12.095  46.076  1.00 47.49     0.000 HD
BRANCH   7   9
HETATM    9  C4  NAG C   1      38.529  10.445  45.174  1.00 34.44     0.057 C 
HETATM   10  C3  NAG C   1      37.716  10.315  43.891  1.00 34.15     0.150 C 
HETATM   11  C2  NAG C   1      37.277   8.863  43.658  1.00 32.59     0.145 C 
HETATM   12  C1  NAG C   1      38.477   7.913  43.769  1.00 28.24     0.178 C 
HETATM   13  O5  NAG C   1      39.142   8.120  45.019  1.00 32.77    -0.373 OA
HETATM   14  C5  NAG C   1      39.676   9.444  45.154  1.00 32.91     0.153 C 
BRANCH  10  15
HETATM   15  O3  NAG C   1      36.567  11.153  43.961  1.00 36.22    -0.393 OA
HETATM   16  HO3 NAG C   1      36.518  11.650  43.228  1.00 43.47     0.210 HD
ENDBRANCH  10  15
BRANCH  11  17
HETATM   17  N2  NAG C   1      36.639   8.733  42.357  1.00 32.25    -0.352 N 
HETATM   18  HN2 NAG C   1      36.958   9.241  41.670  1.00 38.70     0.163 HD
HETATM   19  C7  NAG C   1      35.603   7.921  42.114  1.00 31.56     0.214 C 
HETATM   20  O7  NAG C   1      35.113   7.209  42.985  1.00 31.67    -0.274 OA
HETATM   21  C8  NAG C   1      35.078   7.935  40.709  1.00 31.40     0.117 C 
ENDBRANCH  11  17
BRANCH  14  22
HETATM   22  C6  NAG C   1      40.510   9.461  46.413  1.00 33.57     0.196 C 
BRANCH  22  23
HETATM   23  O6  NAG C   1      41.678  10.253  46.254  1.00 38.40    -0.398 OA
HETATM   24  HO6 NAG C   1      41.952  10.540  47.049  1.00 46.08     0.209 HD
ENDBRANCH  22  23
ENDBRANCH  14  22
ENDBRANCH   7   9
ENDBRANCH   1   7
BRANCH   2  25
HETATM   25  N2  NAG C   2      38.024  13.888  43.662  1.00 46.80    -0.352 N 
HETATM   26  HN2 NAG C   2      37.682  13.763  42.826  1.00 56.16     0.163 HD
HETATM   27  C7  NAG C   2      37.189  14.263  44.637  1.00 45.80     0.214 C 
HETATM   28  O7  NAG C   2      37.573  14.453  45.790  1.00 44.31    -0.274 OA
HETATM   29  C8  NAG C   2      35.754  14.436  44.239  1.00 43.27     0.117 C 
ENDBRANCH   2  25
BRANCH   3  30
HETATM   30  O3  NAG C   2      40.078  15.631  42.614  1.00 54.04    -0.393 OA
HETATM   31  HO3 NAG C   2      39.392  15.833  42.087  1.00 64.84     0.210 HD
ENDBRANCH   3  30
BRANCH   5  32
HETATM   32  C6  NAG C   2      43.310  11.950  43.214  1.00 49.47     0.196 C 
BRANCH  32  33
HETATM   33  O6  NAG C   2      44.083  13.000  43.779  1.00 49.56    -0.398 OA
HETATM   34  HO6 NAG C   2      44.364  12.759  44.586  1.00 59.47     0.209 HD
ENDBRANCH  32  33
ENDBRANCH   5  32
BRANCH   4  35
HETATM   35  O4  NAG C   2      42.379  14.224  41.568  1.00 61.24     0.000 OA
HETATM   36  HO4 NAG C   2      42.377  13.529  41.015  1.00 73.48     0.000 HD
BRANCH  35  37
HETATM   37  C1  MAN C   3      42.817  15.602  41.533  1.00 61.12     0.185 C 
HETATM   38  C2  MAN C   3      42.787  16.023  40.052  1.00 64.56     0.181 C 
HETATM   39  C3  MAN C   3      44.186  15.890  39.473  1.00 65.99     0.180 C 
HETATM   40  C4  MAN C   3      45.115  16.911  40.126  1.00 63.78     0.180 C 
HETATM   41  C5  MAN C   3      45.052  16.795  41.671  1.00 60.29     0.180 C 
HETATM   42  O5  MAN C   3      44.108  15.745  42.141  1.00 59.70    -0.370 OA
BRANCH  38  43
HETATM   43  O2  MAN C   3      42.414  17.399  39.901  1.00 65.84    -0.390 OA
HETATM   44  HO2 MAN C   3      41.773  17.475  39.183  1.00 79.01     0.210 HD
ENDBRANCH  38  43
BRANCH  39  45
HETATM   45  O3  MAN C   3      44.201  16.032  38.052  1.00 68.47    -0.390 OA
HETATM   46  HO3 MAN C   3      43.952  15.160  37.704  1.00 82.16     0.210 HD
ENDBRANCH  39  45
BRANCH  40  47
HETATM   47  O4  MAN C   3      46.455  16.697  39.688  1.00 64.75    -0.390 OA
HETATM   48  HO4 MAN C   3      46.577  17.294  38.933  1.00 77.70     0.210 HD
ENDBRANCH  40  47
BRANCH  41  49
HETATM   49  C6  MAN C   3      44.687  18.108  42.344  1.00 61.73     0.244 C 
HETATM   50  O6  MAN C   3      44.427  19.056  41.311  1.00 62.74    -0.238 OA
ENDBRANCH  41  49
ENDBRANCH  35  37
ENDBRANCH   4  35
TORSDOF 16
ENDMDL
MODEL 6
REMARK VINA RESULT:    -7.388      3.657      6.395
REMARK INTER + INTRA:         -14.284
REMARK INTER:                 -12.325
REMARK INTRA:                  -1.959
REMARK UNBOUND:                -1.498
REMARK  16 active torsions:
REMARK  status: ('A' for Active; 'I' for Inactive)
REMARK    1  A    between atoms: C2_2  and  N2_3 
REMARK       I    between atoms: N2_3  and  C7_12 
REMARK    2  A    between atoms: C3_4  and  O3_5 
REMARK    3  A    between atoms: C4_6  and  O4_7 
REMARK    4  A    between atoms: O4_7  and  C1_19 
REMARK    5  A    between atoms: C5_8  and  C6_10 
REMARK    6  A    between atoms: C6_10  and  O6_11 
REMARK    7  A    between atoms: C2_20  and  N2_21 
REMARK       I    between atoms: N2_21  and  C7_30 
REMARK    8  A    between atoms: C3_22  and  O3_23 
REMARK    9  A    between atoms: C4_24  and  O4_25 
REMARK   10  A    between atoms: O4_25  and  C1_37 
REMARK   11  A    between atoms: C5_26  and  C6_28 
REMARK   12  A    between atoms: C6_28  and  O6_29 
REMARK   13  A    between atoms: C2_38  and  O2_39 
REMARK   14  A    between atoms: C3_40  and  O3_41 
REMARK   15  A    between atoms: C4_42  and  O4_43 
REMARK   16  A    between atoms: C5_44  and  C6_46 
ROOT
HETATM    1  C1  NAG C   2      38.890  11.244  44.122  1.00 45.72     0.178 C 
HETATM    2  C2  NAG C   2      39.972  10.166  44.257  1.00 49.06     0.145 C 
HETATM    3  C3  NAG C   2      41.365  10.764  44.051  1.00 52.65     0.150 C 
HETATM    4  C4  NAG C   2      41.428  11.580  42.766  1.00 54.97     0.057 C 
HETATM    5  C5  NAG C   2      40.295  12.600  42.750  1.00 50.27     0.153 C 
HETATM    6  O5  NAG C   2      39.039  11.920  42.880  1.00 46.44    -0.373 OA
ENDROOT
BRANCH   1   7
HETATM    7  O4  NAG C   1      37.602  10.604  44.220  1.00 39.58     0.000 OA
HETATM    8  HO4 NAG C   1      37.031  10.379  44.862  1.00 47.49     0.000 HD
BRANCH   7   9
HETATM    9  C4  NAG C   1      37.069  10.223  42.955  1.00 34.44     0.057 C 
HETATM   10  C3  NAG C   1      36.584   8.780  43.011  1.00 34.15     0.150 C 
HETATM   11  C2  NAG C   1      35.837   8.396  41.725  1.00 32.59     0.145 C 
HETATM   12  C1  NAG C   1      34.757   9.436  41.399  1.00 28.24     0.178 C 
HETATM   13  O5  NAG C   1      35.341  10.742  41.359  1.00 32.77    -0.373 OA
HETATM   14  C5  NAG C   1      35.903  11.141  42.616  1.00 32.91     0.153 C 
BRANCH  10  15
HETATM   15  O3  NAG C   1      37.692   7.905  43.195  1.00 36.22    -0.393 OA
HETATM   16  HO3 NAG C   1      38.325   8.322  43.656  1.00 43.47     0.210 HD
ENDBRANCH  10  15
BRANCH  11  17
HETATM   17  N2  NAG C   1      35.250   7.073  41.860  1.00 32.25    -0.352 N 
HETATM   18  HN2 NAG C   1      34.708   6.914  42.576  1.00 38.70     0.163 HD
HETATM   19  C7  NAG C   1      35.471   6.069  41.003  1.00 31.56     0.214 C 
HETATM   20  O7  NAG C   1      36.192   6.198  40.017  1.00 31.67    -0.274 OA
HETATM   21  C8  NAG C   1      34.781   4.775  41.318  1.00 31.40     0.117 C 
ENDBRANCH  11  17
BRANCH  14  22
HETATM   22  C6  NAG C   1      36.298  12.593  42.486  1.00 33.57     0.196 C 
BRANCH  22  23
HETATM   23  O6  NAG C   1      35.557  13.417  43.375  1.00 38.40    -0.398 OA
HETATM   24  HO6 NAG C   1      35.619  13.092  44.199  1.00 46.08     0.209 HD
ENDBRANCH  22  23
ENDBRANCH  14  22
ENDBRANCH   7   9
ENDBRANCH   1   7
BRANCH   2  25
HETATM   25  N2  NAG C   2      39.893   9.517  45.557  1.00 46.80    -0.352 N 
HETATM   26  HN2 NAG C   2      39.736  10.038  46.290  1.00 56.16     0.163 HD
HETATM   27  C7  NAG C   2      40.043   8.200  45.738  1.00 45.80     0.214 C 
HETATM   28  O7  NAG C   2      40.257   7.432  44.802  1.00 44.31    -0.274 OA
HETATM   29  C8  NAG C   2      39.931   7.716  47.153  1.00 43.27     0.117 C 
ENDBRANCH   2  25
BRANCH   3  30
HETATM   30  O3  NAG C   2      42.318   9.709  43.995  1.00 54.04    -0.393 OA
HETATM   31  HO3 NAG C   2      43.122  10.025  44.200  1.00 64.84     0.210 HD
ENDBRANCH   3  30
BRANCH   5  32
HETATM   32  C6  NAG C   2      40.230  13.398  41.469  1.00 49.47     0.196 C 
BRANCH  32  33
HETATM   33  O6  NAG C   2      40.672  12.632  40.357  1.00 49.56    -0.398 OA
HETATM   34  HO6 NAG C   2      40.151  11.919  40.263  1.00 59.47     0.209 HD
ENDBRANCH  32  33
ENDBRANCH   5  32
BRANCH   4  35
HETATM   35  O4  NAG C   2      42.671  12.271  42.702  1.00 61.24     0.000 OA
HETATM   36  HO4 NAG C   2      42.882  12.423  41.852  1.00 73.48     0.000 HD
BRANCH  35  37
HETATM   37  C1  MAN C   3      43.222  12.590  44.001  1.00 61.12     0.185 C 
HETATM   38  C2  MAN C   3      43.167  14.124  44.124  1.00 64.56     0.181 C 
HETATM   39  C3  MAN C   3      44.524  14.697  43.754  1.00 65.99     0.180 C 
HETATM   40  C4  MAN C   3      45.562  14.283  44.796  1.00 63.78     0.180 C 
HETATM   41  C5  MAN C   3      45.554  12.744  44.990  1.00 60.29     0.180 C 
HETATM   42  O5  MAN C   3      44.544  12.053  44.142  1.00 59.70    -0.370 OA
BRANCH  38  43
HETATM   43  O2  MAN C   3      42.905  14.536  45.473  1.00 65.84    -0.390 OA
HETATM   44  HO2 MAN C   3      42.574  15.442  45.467  1.00 79.01     0.210 HD
ENDBRANCH  38  43
BRANCH  39  45
HETATM   45  O3  MAN C   3      44.493  16.119  43.614  1.00 68.47    -0.390 OA
HETATM   46  HO3 MAN C   3      44.033  16.284  42.775  1.00 82.16     0.210 HD
ENDBRANCH  39  45
BRANCH  40  47
HETATM   47  O4  MAN C   3      46.861  14.701  44.379  1.00 64.75    -0.390 OA
HETATM   48  HO4 MAN C   3      47.202  15.241  45.109  1.00 77.70     0.210 HD
ENDBRANCH  40  47
BRANCH  41  49
HETATM   49  C6  MAN C   3      45.329  12.337  46.437  1.00 61.73     0.244 C 
HETATM   50  O6  MAN C   3      45.077  13.528  47.178  1.00 62.74    -0.238 OA
ENDBRANCH  41  49
ENDBRANCH  35  37
ENDBRANCH   4  35
TORSDOF 16
ENDMDL
MODEL 7
REMARK VINA RESULT:    -7.299      3.294      9.232
REMARK INTER + INTRA:         -14.131
REMARK INTER:                 -11.057
REMARK INTRA:                  -3.074
REMARK UNBOUND:                -1.498
REMARK  16 active torsions:
REMARK  status: ('A' for Active; 'I' for Inactive)
REMARK    1  A    between atoms: C2_2  and  N2_3 
REMARK       I    between atoms: N2_3  and  C7_12 
REMARK    2  A    between atoms: C3_4  and  O3_5 
REMARK    3  A    between atoms: C4_6  and  O4_7 
REMARK    4  A    between atoms: O4_7  and  C1_19 
REMARK    5  A    between atoms: C5_8  and  C6_10 
REMARK    6  A    between atoms: C6_10  and  O6_11 
REMARK    7  A    between atoms: C2_20  and  N2_21 
REMARK       I    between atoms: N2_21  and  C7_30 
REMARK    8  A    between atoms: C3_22  and  O3_23 
REMARK    9  A    between atoms: C4_24  and  O4_25 
REMARK   10  A    between atoms: O4_25  and  C1_37 
REMARK   11  A    between atoms: C5_26  and  C6_28 
REMARK   12  A    between atoms: C6_28  and  O6_29 
REMARK   13  A    between atoms: C2_38  and  O2_39 
REMARK   14  A    between atoms: C3_40  and  O3_41 
REMARK   15  A    between atoms: C4_42  and  O4_43 
REMARK   16  A    between atoms: C5_44  and  C6_46 
ROOT
HETATM    1  C1  NAG C   2      44.246  15.886  43.428  1.00 45.72     0.178 C 
HETATM    2  C2  NAG C   2      43.536  15.623  44.761  1.00 49.06     0.145 C 
HETATM    3  C3  NAG C   2      42.763  14.303  44.714  1.00 52.65     0.150 C 
HETATM    4  C4  NAG C   2      41.867  14.234  43.485  1.00 54.97     0.057 C 
HETATM    5  C5  NAG C   2      42.687  14.529  42.234  1.00 50.27     0.153 C 
HETATM    6  O5  NAG C   2      43.307  15.816  42.362  1.00 46.44    -0.373 OA
ENDROOT
BRANCH   1   7
HETATM    7  O4  NAG C   1      44.865  17.187  43.496  1.00 39.58     0.000 OA
HETATM    8  HO4 NAG C   1      44.743  17.945  43.941  1.00 47.49     0.000 HD
BRANCH   7   9
HETATM    9  C4  NAG C   1      45.986  17.319  42.628  1.00 34.44     0.057 C 
HETATM   10  C3  NAG C   1      45.696  18.370  41.563  1.00 34.15     0.150 C 
HETATM   11  C2  NAG C   1      46.947  18.670  40.726  1.00 32.59     0.145 C 
HETATM   12  C1  NAG C   1      48.144  18.976  41.637  1.00 28.24     0.178 C 
HETATM   13  O5  NAG C   1      48.321  17.911  42.575  1.00 32.77    -0.373 OA
HETATM   14  C5  NAG C   1      47.195  17.744  43.448  1.00 32.91     0.153 C 
BRANCH  10  15
HETATM   15  O3  NAG C   1      44.651  17.916  40.709  1.00 36.22    -0.393 OA
HETATM   16  HO3 NAG C   1      44.704  17.035  40.619  1.00 43.47     0.210 HD
ENDBRANCH  10  15
BRANCH  11  17
HETATM   17  N2  NAG C   1      46.694  19.782  39.823  1.00 32.25    -0.352 N 
HETATM   18  HN2 NAG C   1      46.738  20.628  40.160  1.00 38.70     0.163 HD
HETATM   19  C7  NAG C   1      46.383  19.634  38.529  1.00 31.56     0.214 C 
HETATM   20  O7  NAG C   1      46.299  18.530  38.000  1.00 31.67    -0.274 OA
HETATM   21  C8  NAG C   1      46.149  20.903  37.764  1.00 31.40     0.117 C 
ENDBRANCH  11  17
BRANCH  14  22
HETATM   22  C6  NAG C   1      47.594  16.735  44.500  1.00 33.57     0.196 C 
BRANCH  22  23
HETATM   23  O6  NAG C   1      47.194  15.421  44.139  1.00 38.40    -0.398 OA
HETATM   24  HO6 NAG C   1      46.539  15.153  44.675  1.00 46.08     0.209 HD
ENDBRANCH  22  23
ENDBRANCH  14  22
ENDBRANCH   7   9
ENDBRANCH   1   7
BRANCH   2  25
HETATM   25  N2  NAG C   2      44.491  15.605  45.859  1.00 46.80    -0.352 N 
HETATM   26  HN2 NAG C   2      44.929  14.824  46.037  1.00 56.16     0.163 HD
HETATM   27  C7  NAG C   2      44.760  16.669  46.623  1.00 45.80     0.214 C 
HETATM   28  O7  NAG C   2      44.212  17.756  46.447  1.00 44.31    -0.274 OA
HETATM   29  C8  NAG C   2      45.773  16.457  47.709  1.00 43.27     0.117 C 
ENDBRANCH   2  25
BRANCH   3  30
HETATM   30  O3  NAG C   2      41.971  14.188  45.892  1.00 54.04    -0.393 OA
HETATM   31  HO3 NAG C   2      41.691  13.350  45.980  1.00 64.84     0.210 HD
ENDBRANCH   3  30
BRANCH   5  32
HETATM   32  C6  NAG C   2      41.857  14.565  40.972  1.00 49.47     0.196 C 
BRANCH  32  33
HETATM   33  O6  NAG C   2      40.514  14.940  41.245  1.00 49.56    -0.398 OA
HETATM   34  HO6 NAG C   2      40.496  15.773  41.552  1.00 59.47     0.209 HD
ENDBRANCH  32  33
ENDBRANCH   5  32
BRANCH   4  35
HETATM   35  O4  NAG C   2      41.311  12.928  43.374  1.00 61.24     0.000 OA
HETATM   36  HO4 NAG C   2      41.923  12.372  43.050  1.00 73.48     0.000 HD
BRANCH  35  37
HETATM   37  C1  MAN C   3      39.951  12.836  43.859  1.00 61.12     0.185 C 
HETATM   38  C2  MAN C   3      39.232  11.837  42.934  1.00 64.56     0.181 C 
HETATM   39  C3  MAN C   3      38.469  12.611  41.872  1.00 65.99     0.180 C 
HETATM   40  C4  MAN C   3      37.330  13.394  42.521  1.00 63.78     0.180 C 
HETATM   41  C5  MAN C   3      37.865  14.270  43.684  1.00 60.29     0.180 C 
HETATM   42  O5  MAN C   3      39.332  14.129  43.895  1.00 59.70    -0.370 OA
BRANCH  38  43
HETATM   43  O2  MAN C   3      38.262  11.060  43.648  1.00 65.84    -0.390 OA
HETATM   44  HO2 MAN C   3      37.377  11.354  43.398  1.00 79.01     0.210 HD
ENDBRANCH  38  43
BRANCH  39  45
HETATM   45  O3  MAN C   3      37.970  11.763  40.836  1.00 68.47    -0.390 OA
HETATM   46  HO3 MAN C   3      37.002  11.834  40.891  1.00 82.16     0.210 HD
ENDBRANCH  39  45
BRANCH  40  47
HETATM   47  O4  MAN C   3      36.700  14.229  41.551  1.00 64.75    -0.390 OA
HETATM   48  HO4 MAN C   3      35.850  13.802  41.359  1.00 77.70     0.210 HD
ENDBRANCH  40  47
BRANCH  41  49
HETATM   49  C6  MAN C   3      37.158  13.992  45.001  1.00 61.73     0.244 C 
HETATM   50  O6  MAN C   3      36.296  12.876  44.791  1.00 62.74    -0.238 OA
ENDBRANCH  41  49
ENDBRANCH  35  37
ENDBRANCH   4  35
TORSDOF 16
ENDMDL
MODEL 8
REMARK VINA RESULT:    -7.278      3.947      7.277
REMARK INTER + INTRA:         -14.094
REMARK INTER:                 -11.423
REMARK INTRA:                  -2.671
REMARK UNBOUND:                -1.498
REMARK  16 active torsions:
REMARK  status: ('A' for Active; 'I' for Inactive)
REMARK    1  A    between atoms: C2_2  and  N2_3 
REMARK       I    between atoms: N2_3  and  C7_12 
REMARK    2  A    between atoms: C3_4  and  O3_5 
REMARK    3  A    between atoms: C4_6  and  O4_7 
REMARK    4  A    between atoms: O4_7  and  C1_19 
REMARK    5  A    between atoms: C5_8  and  C6_10 
REMARK    6  A    between atoms: C6_10  and  O6_11 
REMARK    7  A    between atoms: C2_20  and  N2_21 
REMARK       I    between atoms: N2_21  and  C7_30 
REMARK    8  A    between atoms: C3_22  and  O3_23 
REMARK    9  A    between atoms: C4_24  and  O4_25 
REMARK   10  A    between atoms: O4_25  and  C1_37 
REMARK   11  A    between atoms: C5_26  and  C6_28 
REMARK   12  A    between atoms: C6_28  and  O6_29 
REMARK   13  A    between atoms: C2_38  and  O2_39 
REMARK   14  A    between atoms: C3_40  and  O3_41 
REMARK   15  A    between atoms: C4_42  and  O4_43 
REMARK   16  A    between atoms: C5_44  and  C6_46 
ROOT
HETATM    1  C1  NAG C   2      38.208   9.868  44.107  1.00 45.72     0.178 C 
HETATM    2  C2  NAG C   2      38.288  10.827  45.301  1.00 49.06     0.145 C 
HETATM    3  C3  NAG C   2      39.743  11.048  45.724  1.00 52.65     0.150 C 
HETATM    4  C4  NAG C   2      40.467   9.722  45.915  1.00 54.97     0.057 C 
HETATM    5  C5  NAG C   2      40.297   8.860  44.669  1.00 50.27     0.153 C 
HETATM    6  O5  NAG C   2      38.900   8.663  44.412  1.00 46.44    -0.373 OA
ENDROOT
BRANCH   1   7
HETATM    7  O4  NAG C   1      36.817   9.616  43.824  1.00 39.58     0.000 OA
HETATM    8  HO4 NAG C   1      36.043   9.669  44.256  1.00 47.49     0.000 HD
BRANCH   7   9
HETATM    9  C4  NAG C   1      36.589   9.165  42.493  1.00 34.44     0.057 C 
HETATM   10  C3  NAG C   1      36.040   7.744  42.514  1.00 34.15     0.150 C 
HETATM   11  C2  NAG C   1      35.610   7.295  41.110  1.00 32.59     0.145 C 
HETATM   12  C1  NAG C   1      34.689   8.341  40.469  1.00 28.24     0.178 C 
HETATM   13  O5  NAG C   1      35.324   9.623  40.494  1.00 32.77    -0.373 OA
HETATM   14  C5  NAG C   1      35.582  10.091  41.825  1.00 32.91     0.153 C 
BRANCH  10  15
HETATM   15  O3  NAG C   1      37.029   6.851  43.015  1.00 36.22    -0.393 OA
HETATM   16  HO3 NAG C   1      36.661   6.059  43.173  1.00 43.47     0.210 HD
ENDBRANCH  10  15
BRANCH  11  17
HETATM   17  N2  NAG C   1      34.948   6.002  41.176  1.00 32.25    -0.352 N 
HETATM   18  HN2 NAG C   1      34.625   5.725  41.983  1.00 38.70     0.163 HD
HETATM   19  C7  NAG C   1      34.799   5.186  40.125  1.00 31.56     0.214 C 
HETATM   20  O7  NAG C   1      35.209   5.482  39.006  1.00 31.67    -0.274 OA
HETATM   21  C8  NAG C   1      34.095   3.890  40.397  1.00 31.40     0.117 C 
ENDBRANCH  11  17
BRANCH  14  22
HETATM   22  C6  NAG C   1      36.063  11.518  41.709  1.00 33.57     0.196 C 
BRANCH  22  23
HETATM   23  O6  NAG C   1      35.531  12.333  42.744  1.00 38.40    -0.398 OA
HETATM   24  HO6 NAG C   1      35.097  11.824  43.328  1.00 46.08     0.209 HD
ENDBRANCH  22  23
ENDBRANCH  14  22
ENDBRANCH   7   9
ENDBRANCH   1   7
BRANCH   2  25
HETATM   25  N2  NAG C   2      37.660  12.100  44.982  1.00 46.80    -0.352 N 
HETATM   26  HN2 NAG C   2      37.733  12.415  44.128  1.00 56.16     0.163 HD
HETATM   27  C7  NAG C   2      36.986  12.837  45.872  1.00 45.80     0.214 C 
HETATM   28  O7  NAG C   2      36.845  12.482  47.041  1.00 44.31    -0.274 OA
HETATM   29  C8  NAG C   2      36.411  14.122  45.357  1.00 43.27     0.117 C 
ENDBRANCH   2  25
BRANCH   3  30
HETATM   30  O3  NAG C   2      39.763  11.785  46.941  1.00 54.04    -0.393 OA
HETATM   31  HO3 NAG C   2      38.932  11.900  47.231  1.00 64.84     0.210 HD
ENDBRANCH   3  30
BRANCH   5  32
HETATM   32  C6  NAG C   2      40.914   7.488  44.805  1.00 49.47     0.196 C 
BRANCH  32  33
HETATM   33  O6  NAG C   2      41.181   7.172  46.165  1.00 49.56    -0.398 OA
HETATM   34  HO6 NAG C   2      40.461   6.802  46.529  1.00 59.47     0.209 HD
ENDBRANCH  32  33
ENDBRANCH   5  32
BRANCH   4  35
HETATM   35  O4  NAG C   2      41.855   9.964  46.122  1.00 61.24     0.000 OA
HETATM   36  HO4 NAG C   2      42.195   9.321  46.632  1.00 73.48     0.000 HD
BRANCH  35  37
HETATM   37  C1  MAN C   3      42.350  11.128  45.420  1.00 61.12     0.185 C 
HETATM   38  C2  MAN C   3      43.333  10.601  44.358  1.00 64.56     0.181 C 
HETATM   39  C3  MAN C   3      44.748  10.713  44.899  1.00 65.99     0.180 C 
HETATM   40  C4  MAN C   3      45.128  12.184  45.053  1.00 63.78     0.180 C 
HETATM   41  C5  MAN C   3      44.064  12.936  45.895  1.00 60.29     0.180 C 
HETATM   42  O5  MAN C   3      42.941  12.063  46.331  1.00 59.70    -0.370 OA
BRANCH  38  43
HETATM   43  O2  MAN C   3      43.290  11.390  43.162  1.00 65.84    -0.390 OA
HETATM   44  HO2 MAN C   3      42.935  10.854  42.442  1.00 79.01     0.210 HD
ENDBRANCH  38  43
BRANCH  39  45
HETATM   45  O3  MAN C   3      45.699  10.032  44.078  1.00 68.47    -0.390 OA
HETATM   46  HO3 MAN C   3      46.521  10.018  44.596  1.00 82.16     0.210 HD
ENDBRANCH  39  45
BRANCH  40  47
HETATM   47  O4  MAN C   3      46.400  12.293  45.689  1.00 64.75    -0.390 OA
HETATM   48  HO4 MAN C   3      46.322  11.777  46.507  1.00 77.70     0.210 HD
ENDBRANCH  40  47
BRANCH  41  49
HETATM   49  C6  MAN C   3      43.487  14.141  45.170  1.00 61.73     0.244 C 
HETATM   50  O6  MAN C   3      44.063  14.168  43.867  1.00 62.74    -0.238 OA
ENDBRANCH  41  49
ENDBRANCH  35  37
ENDBRANCH   4  35
TORSDOF 16
ENDMDL
MODEL 9
REMARK VINA RESULT:    -7.265      5.942      9.689
REMARK INTER + INTRA:         -14.072
REMARK INTER:                 -11.293
REMARK INTRA:                  -2.779
REMARK UNBOUND:                -1.498
REMARK  16 active torsions:
REMARK  status: ('A' for Active; 'I' for Inactive)
REMARK    1  A    between atoms: C2_2  and  N2_3 
REMARK       I    between atoms: N2_3  and  C7_12 
REMARK    2  A    between atoms: C3_4  and  O3_5 
REMARK    3  A    between atoms: C4_6  and  O4_7 
REMARK    4  A    between atoms: O4_7  and  C1_19 
REMARK    5  A    between atoms: C5_8  and  C6_10 
REMARK    6  A    between atoms: C6_10  and  O6_11 
REMARK    7  A    between atoms: C2_20  and  N2_21 
REMARK       I    between atoms: N2_21  and  C7_30 
REMARK    8  A    between atoms: C3_22  and  O3_23 
REMARK    9  A    between atoms: C4_24  and  O4_25 
REMARK   10  A    between atoms: O4_25  and  C1_37 
REMARK   11  A    between atoms: C5_26  and  C6_28 
REMARK   12  A    between atoms: C6_28  and  O6_29 
REMARK   13  A    between atoms: C2_38  and  O2_39 
REMARK   14  A    between atoms: C3_40  and  O3_41 
REMARK   15  A    between atoms: C4_42  and  O4_43 
REMARK   16  A    between atoms: C5_44  and  C6_46 
ROOT
HETATM    1  C1  NAG C   2      38.551   9.788  44.827  1.00 45.72     0.178 C 
HETATM    2  C2  NAG C   2      38.811  10.384  46.215  1.00 49.06     0.145 C 
HETATM    3  C3  NAG C   2      40.246  10.104  46.667  1.00 52.65     0.150 C 
HETATM    4  C4  NAG C   2      40.587   8.626  46.529  1.00 54.97     0.057 C 
HETATM    5  C5  NAG C   2      40.269   8.156  45.115  1.00 50.27     0.153 C 
HETATM    6  O5  NAG C   2      38.886   8.405  44.828  1.00 46.44    -0.373 OA
ENDROOT
BRANCH   1   7
HETATM    7  O4  NAG C   1      37.161   9.990  44.502  1.00 39.58     0.000 OA
HETATM    8  HO4 NAG C   1      36.404  10.147  44.940  1.00 47.49     0.000 HD
BRANCH   7   9
HETATM    9  C4  NAG C   1      36.899   9.935  43.104  1.00 34.44     0.057 C 
HETATM   10  C3  NAG C   1      36.213   8.620  42.756  1.00 34.15     0.150 C 
HETATM   11  C2  NAG C   1      35.751   8.606  41.292  1.00 32.59     0.145 C 
HETATM   12  C1  NAG C   1      34.940   9.869  40.971  1.00 28.24     0.178 C 
HETATM   13  O5  NAG C   1      35.697  11.031  41.325  1.00 32.77    -0.373 OA
HETATM   14  C5  NAG C   1      35.992  11.098  42.727  1.00 32.91     0.153 C 
BRANCH  10  15
HETATM   15  O3  NAG C   1      37.107   7.535  42.980  1.00 36.22    -0.393 OA
HETATM   16  HO3 NAG C   1      37.768   7.568  42.388  1.00 43.47     0.210 HD
ENDBRANCH  10  15
BRANCH  11  17
HETATM   17  N2  NAG C   1      34.965   7.412  41.023  1.00 32.25    -0.352 N 
HETATM   18  HN2 NAG C   1      34.090   7.406  41.281  1.00 38.70     0.163 HD
HETATM   19  C7  NAG C   1      35.455   6.315  40.433  1.00 31.56     0.214 C 
HETATM   20  O7  NAG C   1      36.622   6.240  40.060  1.00 31.67    -0.274 OA
HETATM   21  C8  NAG C   1      34.488   5.183  40.252  1.00 31.40     0.117 C 
ENDBRANCH  11  17
BRANCH  14  22
HETATM   22  C6  NAG C   1      36.610  12.452  42.987  1.00 33.57     0.196 C 
BRANCH  22  23
HETATM   23  O6  NAG C   1      35.628  13.415  43.340  1.00 38.40    -0.398 OA
HETATM   24  HO6 NAG C   1      35.711  13.621  44.200  1.00 46.08     0.209 HD
ENDBRANCH  22  23
ENDBRANCH  14  22
ENDBRANCH   7   9
ENDBRANCH   1   7
BRANCH   2  25
HETATM   25  N2  NAG C   2      38.556  11.817  46.216  1.00 46.80    -0.352 N 
HETATM   26  HN2 NAG C   2      39.182  12.366  45.843  1.00 56.16     0.163 HD
HETATM   27  C7  NAG C   2      37.458  12.373  46.738  1.00 45.80     0.214 C 
HETATM   28  O7  NAG C   2      36.570  11.701  47.259  1.00 44.31    -0.274 OA
HETATM   29  C8  NAG C   2      37.374  13.868  46.647  1.00 43.27     0.117 C 
ENDBRANCH   2  25
BRANCH   3  30
HETATM   30  O3  NAG C   2      40.389  10.504  48.026  1.00 54.04    -0.393 OA
HETATM   31  HO3 NAG C   2      39.713  10.179  48.502  1.00 64.84     0.210 HD
ENDBRANCH   3  30
BRANCH   5  32
HETATM   32  C6  NAG C   2      40.498   6.676  44.913  1.00 49.47     0.196 C 
BRANCH  32  33
HETATM   33  O6  NAG C   2      39.452   6.089  44.150  1.00 49.56    -0.398 OA
HETATM   34  HO6 NAG C   2      39.751   5.900  43.335  1.00 59.47     0.209 HD
ENDBRANCH  32  33
ENDBRANCH   5  32
BRANCH   4  35
HETATM   35  O4  NAG C   2      41.975   8.433  46.778  1.00 61.24     0.000 OA
HETATM   36  HO4 NAG C   2      42.447   8.773  46.106  1.00 73.48     0.000 HD
BRANCH  35  37
HETATM   37  C1  MAN C   3      42.252   7.805  48.052  1.00 61.12     0.185 C 
HETATM   38  C2  MAN C   3      43.218   6.643  47.755  1.00 64.56     0.181 C 
HETATM   39  C3  MAN C   3      42.420   5.354  47.647  1.00 65.99     0.180 C 
HETATM   40  C4  MAN C   3      41.825   4.999  49.008  1.00 63.78     0.180 C 
HETATM   41  C5  MAN C   3      41.024   6.197  49.582  1.00 60.29     0.180 C 
HETATM   42  O5  MAN C   3      41.038   7.389  48.692  1.00 59.70    -0.370 OA
BRANCH  38  43
HETATM   43  O2  MAN C   3      44.157   6.452  48.821  1.00 65.84    -0.390 OA
HETATM   44  HO2 MAN C   3      43.947   7.063  49.539  1.00 79.01     0.210 HD
ENDBRANCH  38  43
BRANCH  39  45
HETATM   45  O3  MAN C   3      43.203   4.271  47.142  1.00 68.47    -0.390 OA
HETATM   46  HO3 MAN C   3      43.812   4.673  46.500  1.00 82.16     0.210 HD
ENDBRANCH  39  45
BRANCH  40  47
HETATM   47  O4  MAN C   3      40.963   3.870  48.881  1.00 64.75    -0.390 OA
HETATM   48  HO4 MAN C   3      40.334   4.105  48.180  1.00 77.70     0.210 HD
ENDBRANCH  40  47
BRANCH  41  49
HETATM   49  C6  MAN C   3      41.505   6.617  50.961  1.00 61.73     0.244 C 
HETATM   50  O6  MAN C   3      42.651   5.827  51.270  1.00 62.74    -0.238 OA
ENDBRANCH  41  49
ENDBRANCH  35  37
ENDBRANCH   4  35
TORSDOF 16
ENDMDL
MODEL 10
REMARK VINA RESULT:    -7.250      3.038      8.283
REMARK INTER + INTRA:         -14.045
REMARK INTER:                 -10.840
REMARK INTRA:                  -3.205
REMARK UNBOUND:                -1.498
REMARK  16 active torsions:
REMARK  status: ('A' for Active; 'I' for Inactive)
REMARK    1  A    between atoms: C2_2  and  N2_3 
REMARK       I    between atoms: N2_3  and  C7_12 
REMARK    2  A    between atoms: C3_4  and  O3_5 
REMARK    3  A    between atoms: C4_6  and  O4_7 
REMARK    4  A    between atoms: O4_7  and  C1_19 
REMARK    5  A    between atoms: C5_8  and  C6_10 
REMARK    6  A    between atoms: C6_10  and  O6_11 
REMARK    7  A    between atoms: C2_20  and  N2_21 
REMARK       I    between atoms: N2_21  and  C7_30 
REMARK    8  A    between atoms: C3_22  and  O3_23 
REMARK    9  A    between atoms: C4_24  and  O4_25 
REMARK   10  A    between atoms: O4_25  and  C1_37 
REMARK   11  A    between atoms: C5_26  and  C6_28 
REMARK   12  A    between atoms: C6_28  and  O6_29 
REMARK   13  A    between atoms: C2_38  and  O2_39 
REMARK   14  A    between atoms: C3_40  and  O3_41 
REMARK   15  A    between atoms: C4_42  and  O4_43 
REMARK   16  A    between atoms: C5_44  and  C6_46 
ROOT
HETATM    1  C1  NAG C   2      43.247  14.535  43.568  1.00 45.72     0.178 C 
HETATM    2  C2  NAG C   2      42.445  14.600  42.263  1.00 49.06     0.145 C 
HETATM    3  C3  NAG C   2      40.981  14.952  42.542  1.00 52.65     0.150 C 
HETATM    4  C4  NAG C   2      40.392  14.045  43.614  1.00 54.97     0.057 C 
HETATM    5  C5  NAG C   2      41.289  14.057  44.846  1.00 50.27     0.153 C 
HETATM    6  O5  NAG C   2      42.612  13.644  44.478  1.00 46.44    -0.373 OA
ENDROOT
BRANCH   1   7
HETATM    7  O4  NAG C   1      44.584  14.097  43.254  1.00 39.58     0.000 OA
HETATM    8  HO4 NAG C   1      44.969  13.520  42.700  1.00 47.49     0.000 HD
BRANCH   7   9
HETATM    9  C4  NAG C   1      45.584  14.758  44.022  1.00 34.44     0.057 C 
HETATM   10  C3  NAG C   1      45.157  16.192  44.307  1.00 34.15     0.150 C 
HETATM   11  C2  NAG C   1      46.122  16.874  45.286  1.00 32.59     0.145 C 
HETATM   12  C1  NAG C   1      46.338  15.999  46.528  1.00 28.24     0.178 C 
HETATM   13  O5  NAG C   1      46.752  14.689  46.129  1.00 32.77    -0.373 OA
HETATM   14  C5  NAG C   1      45.769  14.010  45.336  1.00 32.91     0.153 C 
BRANCH  10  15
HETATM   15  O3  NAG C   1      45.112  16.932  43.092  1.00 36.22    -0.393 OA
HETATM   16  HO3 NAG C   1      45.728  17.571  43.111  1.00 43.47     0.210 HD
ENDBRANCH  10  15
BRANCH  11  17
HETATM   17  N2  NAG C   1      45.614  18.183  45.664  1.00 32.25    -0.352 N 
HETATM   18  HN2 NAG C   1      45.006  18.229  46.343  1.00 38.70     0.163 HD
HETATM   19  C7  NAG C   1      45.975  19.325  45.064  1.00 31.56     0.214 C 
HETATM   20  O7  NAG C   1      46.783  19.349  44.140  1.00 31.67    -0.274 OA
HETATM   21  C8  NAG C   1      45.332  20.572  45.592  1.00 31.40     0.117 C 
ENDBRANCH  11  17
BRANCH  14  22
HETATM   22  C6  NAG C   1      46.246  12.588  45.157  1.00 33.57     0.196 C 
BRANCH  22  23
HETATM   23  O6  NAG C   1      45.204  11.744  44.689  1.00 38.40    -0.398 OA
HETATM   24  HO6 NAG C   1      44.432  12.180  44.722  1.00 46.08     0.209 HD
ENDBRANCH  22  23
ENDBRANCH  14  22
ENDBRANCH   7   9
ENDBRANCH   1   7
BRANCH   2  25
HETATM   25  N2  NAG C   2      43.028  15.569  41.348  1.00 46.80    -0.352 N 
HETATM   26  HN2 NAG C   2      43.409  16.319  41.700  1.00 56.16     0.163 HD
HETATM   27  C7  NAG C   2      43.031  15.422  40.019  1.00 45.80     0.214 C 
HETATM   28  O7  NAG C   2      42.537  14.441  39.468  1.00 44.31    -0.274 OA
HETATM   29  C8  NAG C   2      43.677  16.529  39.240  1.00 43.27     0.117 C 
ENDBRANCH   2  25
BRANCH   3  30
HETATM   30  O3  NAG C   2      40.236  14.817  41.337  1.00 54.04    -0.393 OA
HETATM   31  HO3 NAG C   2      40.023  15.622  41.029  1.00 64.84     0.210 HD
ENDBRANCH   3  30
BRANCH   5  32
HETATM   32  C6  NAG C   2      40.822  13.115  45.932  1.00 49.47     0.196 C 
BRANCH  32  33
HETATM   33  O6  NAG C   2      39.879  13.739  46.791  1.00 49.56    -0.398 OA
HETATM   34  HO6 NAG C   2      39.350  13.122  47.148  1.00 59.47     0.209 HD
ENDBRANCH  32  33
ENDBRANCH   5  32
BRANCH   4  35
HETATM   35  O4  NAG C   2      39.100  14.517  43.979  1.00 61.24     0.000 OA
HETATM   36  HO4 NAG C   2      39.182  15.241  44.488  1.00 73.48     0.000 HD
BRANCH  35  37
HETATM   37  C1  MAN C   3      38.019  13.754  43.394  1.00 61.12     0.185 C 
HETATM   38  C2  MAN C   3      37.045  13.440  44.545  1.00 64.56     0.181 C 
HETATM   39  C3  MAN C   3      37.333  12.042  45.067  1.00 65.99     0.180 C 
HETATM   40  C4  MAN C   3      36.983  11.009  43.998  1.00 63.78     0.180 C 
HETATM   41  C5  MAN C   3      37.692  11.347  42.661  1.00 60.29     0.180 C 
HETATM   42  O5  MAN C   3      38.518  12.583  42.733  1.00 59.70    -0.370 OA
BRANCH  38  43
HETATM   43  O2  MAN C   3      35.683  13.435  44.097  1.00 65.84    -0.390 OA
HETATM   44  HO2 MAN C   3      35.432  14.331  43.842  1.00 79.01     0.210 HD
ENDBRANCH  38  43
BRANCH  39  45
HETATM   45  O3  MAN C   3      36.637  11.763  46.283  1.00 68.47    -0.390 OA
HETATM   46  HO3 MAN C   3      36.017  11.047  46.065  1.00 82.16     0.210 HD
ENDBRANCH  39  45
BRANCH  40  47
HETATM   47  O4  MAN C   3      37.381   9.710  44.430  1.00 64.75    -0.390 OA
HETATM   48  HO4 MAN C   3      38.024   9.406  43.770  1.00 77.70     0.210 HD
ENDBRANCH  40  47
BRANCH  41  49
HETATM   49  C6  MAN C   3      36.721  11.482  41.499  1.00 61.73     0.244 C 
HETATM   50  O6  MAN C   3      35.404  11.460  42.044  1.00 62.74    -0.238 OA
ENDBRANCH  41  49
ENDBRANCH  35  37
ENDBRANCH   4  35
TORSDOF 16
ENDMDL
MODEL 11
REMARK VINA RESULT:    -7.158      2.921      5.433
REMARK INTER + INTRA:         -13.886
REMARK INTER:                 -11.515
REMARK INTRA:                  -2.371
REMARK UNBOUND:                -1.498
REMARK  16 active torsions:
REMARK  status: ('A' for Active; 'I' for Inactive)
REMARK    1  A    between atoms: C2_2  and  N2_3 
REMARK       I    between atoms: N2_3  and  C7_12 
REMARK    2  A    between atoms: C3_4  and  O3_5 
REMARK    3  A    between atoms: C4_6  and  O4_7 
REMARK    4  A    between atoms: O4_7  and  C1_19 
REMARK    5  A    between atoms: C5_8  and  C6_10 
REMARK    6  A    between atoms: C6_10  and  O6_11 
REMARK    7  A    between atoms: C2_20  and  N2_21 
REMARK       I    between atoms: N2_21  and  C7_30 
REMARK    8  A    between atoms: C3_22  and  O3_23 
REMARK    9  A    between atoms: C4_24  and  O4_25 
REMARK   10  A    between atoms: O4_25  and  C1_37 
REMARK   11  A    between atoms: C5_26  and  C6_28 
REMARK   12  A    between atoms: C6_28  and  O6_29 
REMARK   13  A    between atoms: C2_38  and  O2_39 
REMARK   14  A    between atoms: C3_40  and  O3_41 
REMARK   15  A    between atoms: C4_42  and  O4_43 
REMARK   16  A    between atoms: C5_44  and  C6_46 
ROOT
HETATM    1  C1  NAG C   2      42.427  14.185  43.358  1.00 45.72     0.178 C 
HETATM    2  C2  NAG C   2      43.844  14.287  43.936  1.00 49.06     0.145 C 
HETATM    3  C3  NAG C   2      44.448  15.664  43.653  1.00 52.65     0.150 C 
HETATM    4  C4  NAG C   2      44.329  16.025  42.178  1.00 54.97     0.057 C 
HETATM    5  C5  NAG C   2      42.882  15.867  41.727  1.00 50.27     0.153 C 
HETATM    6  O5  NAG C   2      42.447  14.524  41.976  1.00 46.44    -0.373 OA
ENDROOT
BRANCH   1   7
HETATM    7  O4  NAG C   1      41.953  12.838  43.560  1.00 39.58     0.000 OA
HETATM    8  HO4 NAG C   1      42.287  12.016  43.524  1.00 47.49     0.000 HD
BRANCH   7   9
HETATM    9  C4  NAG C   1      40.578  12.778  43.927  1.00 34.44     0.057 C 
HETATM   10  C3  NAG C   1      39.770  12.138  42.805  1.00 34.15     0.150 C 
HETATM   11  C2  NAG C   1      38.319  11.888  43.240  1.00 32.59     0.145 C 
HETATM   12  C1  NAG C   1      38.279  11.143  44.580  1.00 28.24     0.178 C 
HETATM   13  O5  NAG C   1      39.057  11.852  45.550  1.00 32.77    -0.373 OA
HETATM   14  C5  NAG C   1      40.443  11.944  45.193  1.00 32.91     0.153 C 
BRANCH  10  15
HETATM   15  O3  NAG C   1      39.784  12.981  41.658  1.00 36.22    -0.393 OA
HETATM   16  HO3 NAG C   1      39.855  12.485  40.926  1.00 43.47     0.210 HD
ENDBRANCH  10  15
BRANCH  11  17
HETATM   17  N2  NAG C   1      37.609  11.139  42.216  1.00 32.25    -0.352 N 
HETATM   18  HN2 NAG C   1      38.093  10.594  41.668  1.00 38.70     0.163 HD
HETATM   19  C7  NAG C   1      36.287  11.214  42.020  1.00 31.56     0.214 C 
HETATM   20  O7  NAG C   1      35.564  11.926  42.711  1.00 31.67    -0.274 OA
HETATM   21  C8  NAG C   1      35.741  10.370  40.907  1.00 31.40     0.117 C 
ENDBRANCH  11  17
BRANCH  14  22
HETATM   22  C6  NAG C   1      41.170  12.531  46.380  1.00 33.57     0.196 C 
BRANCH  22  23
HETATM   23  O6  NAG C   1      41.045  13.945  46.421  1.00 38.40    -0.398 OA
HETATM   24  HO6 NAG C   1      41.561  14.269  47.067  1.00 46.08     0.209 HD
ENDBRANCH  22  23
ENDBRANCH  14  22
ENDBRANCH   7   9
ENDBRANCH   1   7
BRANCH   2  25
HETATM   25  N2  NAG C   2      43.835  14.027  45.368  1.00 46.80    -0.352 N 
HETATM   26  HN2 NAG C   2      43.138  14.350  45.860  1.00 56.16     0.163 HD
HETATM   27  C7  NAG C   2      44.796  13.346  46.002  1.00 45.80     0.214 C 
HETATM   28  O7  NAG C   2      45.767  12.881  45.409  1.00 44.31    -0.274 OA
HETATM   29  C8  NAG C   2      44.615  13.183  47.482  1.00 43.27     0.117 C 
ENDBRANCH   2  25
BRANCH   3  30
HETATM   30  O3  NAG C   2      45.820  15.654  44.035  1.00 54.04    -0.393 OA
HETATM   31  HO3 NAG C   2      46.158  16.470  43.945  1.00 64.84     0.210 HD
ENDBRANCH   3  30
BRANCH   5  32
HETATM   32  C6  NAG C   2      42.686  16.124  40.251  1.00 49.47     0.196 C 
BRANCH  32  33
HETATM   33  O6  NAG C   2      42.331  17.477  40.002  1.00 49.56    -0.398 OA
HETATM   34  HO6 NAG C   2      41.697  17.726  40.572  1.00 59.47     0.209 HD
ENDBRANCH  32  33
ENDBRANCH   5  32
BRANCH   4  35
HETATM   35  O4  NAG C   2      44.728  17.378  41.986  1.00 61.24     0.000 OA
HETATM   36  HO4 NAG C   2      44.365  17.886  42.618  1.00 73.48     0.000 HD
BRANCH  35  37
HETATM   37  C1  MAN C   3      45.641  17.559  40.879  1.00 61.12     0.185 C 
HETATM   38  C2  MAN C   3      47.049  17.646  41.496  1.00 64.56     0.181 C 
HETATM   39  C3  MAN C   3      47.433  19.109  41.645  1.00 65.99     0.180 C 
HETATM   40  C4  MAN C   3      47.597  19.743  40.265  1.00 63.78     0.180 C 
HETATM   41  C5  MAN C   3      46.332  19.501  39.400  1.00 60.29     0.180 C 
HETATM   42  O5  MAN C   3      45.285  18.711  40.104  1.00 59.70    -0.370 OA
BRANCH  38  43
HETATM   43  O2  MAN C   3      48.037  17.051  40.644  1.00 65.84    -0.390 OA
HETATM   44  HO2 MAN C   3      47.619  16.784  39.816  1.00 79.01     0.210 HD
ENDBRANCH  38  43
BRANCH  39  45
HETATM   45  O3  MAN C   3      48.618  19.283  42.423  1.00 68.47    -0.390 OA
HETATM   46  HO3 MAN C   3      49.201  18.548  42.169  1.00 82.16     0.210 HD
ENDBRANCH  39  45
BRANCH  40  47
HETATM   47  O4  MAN C   3      47.819  21.145  40.399  1.00 64.75    -0.390 OA
HETATM   48  HO4 MAN C   3      47.094  21.567  39.911  1.00 77.70     0.210 HD
ENDBRANCH  40  47
BRANCH  41  49
HETATM   49  C6  MAN C   3      46.646  18.819  38.079  1.00 61.73     0.244 C 
HETATM   50  O6  MAN C   3      45.407  18.606  37.407  1.00 62.74    -0.238 OA
ENDBRANCH  41  49
ENDBRANCH  35  37
ENDBRANCH   4  35
TORSDOF 16
ENDMDL
MODEL 12
REMARK VINA RESULT:    -7.115      3.348      5.154
REMARK INTER + INTRA:         -13.812
REMARK INTER:                 -11.186
REMARK INTRA:                  -2.626
REMARK UNBOUND:                -1.498
REMARK  16 active torsions:
REMARK  status: ('A' for Active; 'I' for Inactive)
REMARK    1  A    between atoms: C2_2  and  N2_3 
REMARK       I    between atoms: N2_3  and  C7_12 
REMARK    2  A    between atoms: C3_4  and  O3_5 
REMARK    3  A    between atoms: C4_6  and  O4_7 
REMARK    4  A    between atoms: O4_7  and  C1_19 
REMARK    5  A    between atoms: C5_8  and  C6_10 
REMARK    6  A    between atoms: C6_10  and  O6_11 
REMARK    7  A    between atoms: C2_20  and  N2_21 
REMARK       I    between atoms: N2_21  and  C7_30 
REMARK    8  A    between atoms: C3_22  and  O3_23 
REMARK    9  A    between atoms: C4_24  and  O4_25 
REMARK   10  A    between atoms: O4_25  and  C1_37 
REMARK   11  A    between atoms: C5_26  and  C6_28 
REMARK   12  A    between atoms: C6_28  and  O6_29 
REMARK   13  A    between atoms: C2_38  and  O2_39 
REMARK   14  A    between atoms: C3_40  and  O3_41 
REMARK   15  A    between atoms: C4_42  and  O4_43 
REMARK   16  A    between atoms: C5_44  and  C6_46 
ROOT
HETATM    1  C1  NAG C   2      42.604  12.700  44.385  1.00 45.72     0.178 C 
HETATM    2  C2  NAG C   2      44.128  12.832  44.489  1.00 49.06     0.145 C 
HETATM    3  C3  NAG C   2      44.540  14.303  44.590  1.00 52.65     0.150 C 
HETATM    4  C4  NAG C   2      43.898  15.131  43.485  1.00 54.97     0.057 C 
HETATM    5  C5  NAG C   2      42.391  14.898  43.478  1.00 50.27     0.153 C 
HETATM    6  O5  NAG C   2      42.125  13.499  43.309  1.00 46.44    -0.373 OA
ENDROOT
BRANCH   1   7
HETATM    7  O4  NAG C   1      42.285  11.308  44.186  1.00 39.58     0.000 OA
HETATM    8  HO4 NAG C   1      42.665  10.598  43.813  1.00 47.49     0.000 HD
BRANCH   7   9
HETATM    9  C4  NAG C   1      41.022  10.940  44.732  1.00 34.44     0.057 C 
HETATM   10  C3  NAG C   1      39.971  10.905  43.630  1.00 34.15     0.150 C 
HETATM   11  C2  NAG C   1      38.643  10.334  44.148  1.00 32.59     0.145 C 
HETATM   12  C1  NAG C   1      38.876   9.000  44.870  1.00 28.24     0.178 C 
HETATM   13  O5  NAG C   1      39.867   9.169  45.888  1.00 32.77    -0.373 OA
HETATM   14  C5  NAG C   1      41.143   9.561  45.365  1.00 32.91     0.153 C 
BRANCH  10  15
HETATM   15  O3  NAG C   1      39.757  12.219  43.125  1.00 36.22    -0.393 OA
HETATM   16  HO3 NAG C   1      39.451  12.171  42.294  1.00 43.47     0.210 HD
ENDBRANCH  10  15
BRANCH  11  17
HETATM   17  N2  NAG C   1      37.705  10.165  43.050  1.00 32.25    -0.352 N 
HETATM   18  HN2 NAG C   1      37.880   9.518  42.431  1.00 38.70     0.163 HD
HETATM   19  C7  NAG C   1      36.607  10.913  42.885  1.00 31.56     0.214 C 
HETATM   20  O7  NAG C   1      36.303  11.807  43.670  1.00 31.67    -0.274 OA
HETATM   21  C8  NAG C   1      35.770  10.590  41.684  1.00 31.40     0.117 C 
ENDBRANCH  11  17
BRANCH  14  22
HETATM   22  C6  NAG C   1      42.128   9.509  46.509  1.00 33.57     0.196 C 
BRANCH  22  23
HETATM   23  O6  NAG C   1      42.260  10.774  47.142  1.00 38.40    -0.398 OA
HETATM   24  HO6 NAG C   1      41.486  11.001  47.513  1.00 46.08     0.209 HD
ENDBRANCH  22  23
ENDBRANCH  14  22
ENDBRANCH   7   9
ENDBRANCH   1   7
BRANCH   2  25
HETATM   25  N2  NAG C   2      44.632  12.091  45.635  1.00 46.80    -0.352 N 
HETATM   26  HN2 NAG C   2      44.387  12.368  46.469  1.00 56.16     0.163 HD
HETATM   27  C7  NAG C   2      45.439  11.029  45.533  1.00 45.80     0.214 C 
HETATM   28  O7  NAG C   2      45.814  10.596  44.445  1.00 44.31    -0.274 OA
HETATM   29  C8  NAG C   2      45.856  10.397  46.827  1.00 43.27     0.117 C 
ENDBRANCH   2  25
BRANCH   3  30
HETATM   30  O3  NAG C   2      45.958  14.393  44.494  1.00 54.04    -0.393 OA
HETATM   31  HO3 NAG C   2      46.225  15.185  44.793  1.00 64.84     0.210 HD
ENDBRANCH   3  30
BRANCH   5  32
HETATM   32  C6  NAG C   2      41.682  15.618  42.356  1.00 49.47     0.196 C 
BRANCH  32  33
HETATM   33  O6  NAG C   2      40.299  15.293  42.324  1.00 49.56    -0.398 OA
HETATM   34  HO6 NAG C   2      39.873  15.864  41.794  1.00 59.47     0.209 HD
ENDBRANCH  32  33
ENDBRANCH   5  32
BRANCH   4  35
HETATM   35  O4  NAG C   2      44.150  16.513  43.718  1.00 61.24     0.000 OA
HETATM   36  HO4 NAG C   2      43.717  16.773  44.449  1.00 73.48     0.000 HD
BRANCH  35  37
HETATM   37  C1  MAN C   3      45.066  17.102  42.765  1.00 61.12     0.185 C 
HETATM   38  C2  MAN C   3      44.191  17.772  41.689  1.00 64.56     0.181 C 
HETATM   39  C3  MAN C   3      44.058  16.829  40.505  1.00 65.99     0.180 C 
HETATM   40  C4  MAN C   3      45.415  16.661  39.824  1.00 63.78     0.180 C 
HETATM   41  C5  MAN C   3      46.494  16.238  40.855  1.00 60.29     0.180 C 
HETATM   42  O5  MAN C   3      45.962  16.114  42.239  1.00 59.70    -0.370 OA
BRANCH  38  43
HETATM   43  O2  MAN C   3      44.797  18.971  41.189  1.00 65.84    -0.390 OA
HETATM   44  HO2 MAN C   3      45.359  18.750  40.436  1.00 79.01     0.210 HD
ENDBRANCH  38  43
BRANCH  39  45
HETATM   45  O3  MAN C   3      43.076  17.271  39.567  1.00 68.47    -0.390 OA
HETATM   46  HO3 MAN C   3      43.564  17.437  38.744  1.00 82.16     0.210 HD
ENDBRANCH  39  45
BRANCH  40  47
HETATM   47  O4  MAN C   3      45.324  15.671  38.800  1.00 64.75    -0.390 OA
HETATM   48  HO4 MAN C   3      44.390  15.408  38.781  1.00 77.70     0.210 HD
ENDBRANCH  40  47
BRANCH  41  49
HETATM   49  C6  MAN C   3      47.685  17.182  40.877  1.00 61.73     0.244 C 
HETATM   50  O6  MAN C   3      47.456  18.177  39.883  1.00 62.74    -0.238 OA
ENDBRANCH  41  49
ENDBRANCH  35  37
ENDBRANCH   4  35
TORSDOF 16
ENDMDL
MODEL 13
REMARK VINA RESULT:    -7.064      3.302      5.176
REMARK INTER + INTRA:         -13.724
REMARK INTER:                 -12.188
REMARK INTRA:                  -1.536
REMARK UNBOUND:                -1.498
REMARK  16 active torsions:
REMARK  status: ('A' for Active; 'I' for Inactive)
REMARK    1  A    between atoms: C2_2  and  N2_3 
REMARK       I    between atoms: N2_3  and  C7_12 
REMARK    2  A    between atoms: C3_4  and  O3_5 
REMARK    3  A    between atoms: C4_6  and  O4_7 
REMARK    4  A    between atoms: O4_7  and  C1_19 
REMARK    5  A    between atoms: C5_8  and  C6_10 
REMARK    6  A    between atoms: C6_10  and  O6_11 
REMARK    7  A    between atoms: C2_20  and  N2_21 
REMARK       I    between atoms: N2_21  and  C7_30 
REMARK    8  A    between atoms: C3_22  and  O3_23 
REMARK    9  A    between atoms: C4_24  and  O4_25 
REMARK   10  A    between atoms: O4_25  and  C1_37 
REMARK   11  A    between atoms: C5_26  and  C6_28 
REMARK   12  A    between atoms: C6_28  and  O6_29 
REMARK   13  A    between atoms: C2_38  and  O2_39 
REMARK   14  A    between atoms: C3_40  and  O3_41 
REMARK   15  A    between atoms: C4_42  and  O4_43 
REMARK   16  A    between atoms: C5_44  and  C6_46 
ROOT
HETATM    1  C1  NAG C   2      41.638  13.355  43.508  1.00 45.72     0.178 C 
HETATM    2  C2  NAG C   2      42.816  13.982  44.262  1.00 49.06     0.145 C 
HETATM    3  C3  NAG C   2      43.042  15.427  43.811  1.00 52.65     0.150 C 
HETATM    4  C4  NAG C   2      43.126  15.523  42.293  1.00 54.97     0.057 C 
HETATM    5  C5  NAG C   2      41.909  14.851  41.669  1.00 50.27     0.153 C 
HETATM    6  O5  NAG C   2      41.839  13.487  42.107  1.00 46.44    -0.373 OA
ENDROOT
BRANCH   1   7
HETATM    7  O4  NAG C   1      41.542  11.969  43.895  1.00 39.58     0.000 OA
HETATM    8  HO4 NAG C   1      42.068  11.254  43.899  1.00 47.49     0.000 HD
BRANCH   7   9
HETATM    9  C4  NAG C   1      40.267  11.624  44.429  1.00 34.44     0.057 C 
HETATM   10  C3  NAG C   1      39.309  11.274  43.298  1.00 34.15     0.150 C 
HETATM   11  C2  NAG C   1      37.985  10.720  43.844  1.00 32.59     0.145 C 
HETATM   12  C1  NAG C   1      38.248   9.591  44.850  1.00 28.24     0.178 C 
HETATM   13  O5  NAG C   1      39.144  10.050  45.867  1.00 32.77    -0.373 OA
HETATM   14  C5  NAG C   1      40.429  10.423  45.351  1.00 32.91     0.153 C 
BRANCH  10  15
HETATM   15  O3  NAG C   1      39.049  12.430  42.509  1.00 36.22    -0.393 OA
HETATM   16  HO3 NAG C   1      38.455  12.943  42.922  1.00 43.47     0.210 HD
ENDBRANCH  10  15
BRANCH  11  17
HETATM   17  N2  NAG C   1      37.148  10.248  42.752  1.00 32.25    -0.352 N 
HETATM   18  HN2 NAG C   1      37.312   9.417  42.413  1.00 38.70     0.163 HD
HETATM   19  C7  NAG C   1      36.161  10.968  42.205  1.00 31.56     0.214 C 
HETATM   20  O7  NAG C   1      35.880  12.096  42.600  1.00 31.67    -0.274 OA
HETATM   21  C8  NAG C   1      35.417  10.311  41.082  1.00 31.40     0.117 C 
ENDBRANCH  11  17
BRANCH  14  22
HETATM   22  C6  NAG C   1      41.323  10.693  46.538  1.00 33.57     0.196 C 
BRANCH  22  23
HETATM   23  O6  NAG C   1      42.696  10.675  46.171  1.00 38.40    -0.398 OA
HETATM   24  HO6 NAG C   1      42.913   9.866  45.877  1.00 46.08     0.209 HD
ENDBRANCH  22  23
ENDBRANCH  14  22
ENDBRANCH   7   9
ENDBRANCH   1   7
BRANCH   2  25
HETATM   25  N2  NAG C   2      42.593  13.935  45.699  1.00 46.80    -0.352 N 
HETATM   26  HN2 NAG C   2      41.738  14.031  46.006  1.00 56.16     0.163 HD
HETATM   27  C7  NAG C   2      43.571  13.764  46.595  1.00 45.80     0.214 C 
HETATM   28  O7  NAG C   2      44.746  13.628  46.262  1.00 44.31    -0.274 OA
HETATM   29  C8  NAG C   2      43.145  13.745  48.033  1.00 43.27     0.117 C 
ENDBRANCH   2  25
BRANCH   3  30
HETATM   30  O3  NAG C   2      44.251  15.908  44.389  1.00 54.04    -0.393 OA
HETATM   31  HO3 NAG C   2      44.375  16.755  44.154  1.00 64.84     0.210 HD
ENDBRANCH   3  30
BRANCH   5  32
HETATM   32  C6  NAG C   2      41.952  14.824  40.159  1.00 49.47     0.196 C 
BRANCH  32  33
HETATM   33  O6  NAG C   2      41.427  13.608  39.646  1.00 49.56    -0.398 OA
HETATM   34  HO6 NAG C   2      42.017  12.955  39.771  1.00 59.47     0.209 HD
ENDBRANCH  32  33
ENDBRANCH   5  32
BRANCH   4  35
HETATM   35  O4  NAG C   2      43.148  16.892  41.904  1.00 61.24     0.000 OA
HETATM   36  HO4 NAG C   2      42.323  17.158  41.709  1.00 73.48     0.000 HD
BRANCH  35  37
HETATM   37  C1  MAN C   3      44.461  17.494  41.981  1.00 61.12     0.185 C 
HETATM   38  C2  MAN C   3      44.385  18.544  43.104  1.00 64.56     0.181 C 
HETATM   39  C3  MAN C   3      44.139  19.910  42.485  1.00 65.99     0.180 C 
HETATM   40  C4  MAN C   3      45.358  20.334  41.667  1.00 63.78     0.180 C 
HETATM   41  C5  MAN C   3      45.738  19.232  40.645  1.00 60.29     0.180 C 
HETATM   42  O5  MAN C   3      44.850  18.039  40.713  1.00 59.70    -0.370 OA
BRANCH  38  43
HETATM   43  O2  MAN C   3      45.623  18.640  43.822  1.00 65.84    -0.390 OA
HETATM   44  HO2 MAN C   3      45.434  18.729  44.764  1.00 79.01     0.210 HD
ENDBRANCH  38  43
BRANCH  39  45
HETATM   45  O3  MAN C   3      43.821  20.901  43.464  1.00 68.47    -0.390 OA
HETATM   46  HO3 MAN C   3      43.937  20.460  44.322  1.00 82.16     0.210 HD
ENDBRANCH  39  45
BRANCH  40  47
HETATM   47  O4  MAN C   3      45.077  21.548  40.973  1.00 64.75    -0.390 OA
HETATM   48  HO4 MAN C   3      44.198  21.821  41.280  1.00 77.70     0.210 HD
ENDBRANCH  40  47
BRANCH  41  49
HETATM   49  C6  MAN C   3      47.179  18.770  40.788  1.00 61.73     0.244 C 
HETATM   50  O6  MAN C   3      47.935  19.882  41.259  1.00 62.74    -0.238 OA
ENDBRANCH  41  49
ENDBRANCH  35  37
ENDBRANCH   4  35
TORSDOF 16
ENDMDL
MODEL 14
REMARK VINA RESULT:    -7.023      2.883      4.270
REMARK INTER + INTRA:         -13.652
REMARK INTER:                 -11.480
REMARK INTRA:                  -2.172
REMARK UNBOUND:                -1.498
REMARK  16 active torsions:
REMARK  status: ('A' for Active; 'I' for Inactive)
REMARK    1  A    between atoms: C2_2  and  N2_3 
REMARK       I    between atoms: N2_3  and  C7_12 
REMARK    2  A    between atoms: C3_4  and  O3_5 
REMARK    3  A    between atoms: C4_6  and  O4_7 
REMARK    4  A    between atoms: O4_7  and  C1_19 
REMARK    5  A    between atoms: C5_8  and  C6_10 
REMARK    6  A    between atoms: C6_10  and  O6_11 
REMARK    7  A    between atoms: C2_20  and  N2_21 
REMARK       I    between atoms: N2_21  and  C7_30 
REMARK    8  A    between atoms: C3_22  and  O3_23 
REMARK    9  A    between atoms: C4_24  and  O4_25 
REMARK   10  A    between atoms: O4_25  and  C1_37 
REMARK   11  A    between atoms: C5_26  and  C6_28 
REMARK   12  A    between atoms: C6_28  and  O6_29 
REMARK   13  A    between atoms: C2_38  and  O2_39 
REMARK   14  A    between atoms: C3_40  and  O3_41 
REMARK   15  A    between atoms: C4_42  and  O4_43 
REMARK   16  A    between atoms: C5_44  and  C6_46 
ROOT
HETATM    1  C1  NAG C   2      40.058  11.163  43.331  1.00 45.72     0.178 C 
HETATM    2  C2  NAG C   2      39.267  12.241  42.579  1.00 49.06     0.145 C 
HETATM    3  C3  NAG C   2      40.165  12.977  41.582  1.00 52.65     0.150 C 
HETATM    4  C4  NAG C   2      41.443  13.467  42.250  1.00 54.97     0.057 C 
HETATM    5  C5  NAG C   2      42.121  12.308  42.972  1.00 50.27     0.153 C 
HETATM    6  O5  NAG C   2      41.212  11.743  43.927  1.00 46.44    -0.373 OA
ENDROOT
BRANCH   1   7
HETATM    7  O4  NAG C   1      39.192  10.580  44.326  1.00 39.58     0.000 OA
HETATM    8  HO4 NAG C   1      38.321  10.446  44.436  1.00 47.49     0.000 HD
BRANCH   7   9
HETATM    9  C4  NAG C   1      39.898  10.062  45.448  1.00 34.44     0.057 C 
HETATM   10  C3  NAG C   1      39.395  10.722  46.726  1.00 34.15     0.150 C 
HETATM   11  C2  NAG C   1      40.003  10.056  47.969  1.00 32.59     0.145 C 
HETATM   12  C1  NAG C   1      39.823   8.533  47.907  1.00 28.24     0.178 C 
HETATM   13  O5  NAG C   1      40.349   8.036  46.672  1.00 32.77    -0.373 OA
HETATM   14  C5  NAG C   1      39.667   8.560  45.524  1.00 32.91     0.153 C 
BRANCH  10  15
HETATM   15  O3  NAG C   1      39.729  12.106  46.719  1.00 36.22    -0.393 OA
HETATM   16  HO3 NAG C   1      39.055  12.571  46.378  1.00 43.47     0.210 HD
ENDBRANCH  10  15
BRANCH  11  17
HETATM   17  N2  NAG C   1      39.394  10.593  49.176  1.00 32.25    -0.352 N 
HETATM   18  HN2 NAG C   1      38.599  10.241  49.450  1.00 38.70     0.163 HD
HETATM   19  C7  NAG C   1      39.927  11.586  49.900  1.00 31.56     0.214 C 
HETATM   20  O7  NAG C   1      40.991  12.117  49.597  1.00 31.67    -0.274 OA
HETATM   21  C8  NAG C   1      39.143  12.007  51.108  1.00 31.40     0.117 C 
ENDBRANCH  11  17
BRANCH  14  22
HETATM   22  C6  NAG C   1      40.184   7.810  44.319  1.00 33.57     0.196 C 
BRANCH  22  23
HETATM   23  O6  NAG C   1      39.352   6.704  43.997  1.00 38.40    -0.398 OA
HETATM   24  HO6 NAG C   1      38.640   6.705  44.528  1.00 46.08     0.209 HD
ENDBRANCH  22  23
ENDBRANCH  14  22
ENDBRANCH   7   9
ENDBRANCH   1   7
BRANCH   2  25
HETATM   25  N2  NAG C   2      38.127  11.656  41.890  1.00 46.80    -0.352 N 
HETATM   26  HN2 NAG C   2      38.254  11.326  41.049  1.00 56.16     0.163 HD
HETATM   27  C7  NAG C   2      36.901  11.581  42.421  1.00 45.80     0.214 C 
HETATM   28  O7  NAG C   2      36.649  12.004  43.547  1.00 44.31    -0.274 OA
HETATM   29  C8  NAG C   2      35.852  10.946  41.557  1.00 43.27     0.117 C 
ENDBRANCH   2  25
BRANCH   3  30
HETATM   30  O3  NAG C   2      39.449  14.085  41.046  1.00 54.04    -0.393 OA
HETATM   31  HO3 NAG C   2      39.103  13.861  40.260  1.00 64.84     0.210 HD
ENDBRANCH   3  30
BRANCH   5  32
HETATM   32  C6  NAG C   2      43.356  12.723  43.736  1.00 49.47     0.196 C 
BRANCH  32  33
HETATM   33  O6  NAG C   2      43.050  13.032  45.089  1.00 49.56    -0.398 OA
HETATM   34  HO6 NAG C   2      42.869  13.898  45.161  1.00 59.47     0.209 HD
ENDBRANCH  32  33
ENDBRANCH   5  32
BRANCH   4  35
HETATM   35  O4  NAG C   2      42.331  13.977  41.261  1.00 61.24     0.000 OA
HETATM   36  HO4 NAG C   2      42.537  13.331  40.686  1.00 73.48     0.000 HD
BRANCH  35  37
HETATM   37  C1  MAN C   3      42.612  15.388  41.410  1.00 61.12     0.185 C 
HETATM   38  C2  MAN C   3      42.745  15.951  39.983  1.00 64.56     0.181 C 
HETATM   39  C3  MAN C   3      44.217  16.016  39.614  1.00 65.99     0.180 C 
HETATM   40  C4  MAN C   3      44.923  17.053  40.485  1.00 63.78     0.180 C 
HETATM   41  C5  MAN C   3      44.656  16.776  41.988  1.00 60.29     0.180 C 
HETATM   42  O5  MAN C   3      43.779  15.595  42.217  1.00 59.70    -0.370 OA
BRANCH  38  43
HETATM   43  O2  MAN C   3      42.244  17.292  39.896  1.00 65.84    -0.390 OA
HETATM   44  HO2 MAN C   3      42.896  17.897  40.272  1.00 79.01     0.210 HD
ENDBRANCH  38  43
BRANCH  39  45
HETATM   45  O3  MAN C   3      44.418  16.303  38.229  1.00 68.47    -0.390 OA
HETATM   46  HO3 MAN C   3      44.009  15.561  37.752  1.00 82.16     0.210 HD
ENDBRANCH  39  45
BRANCH  40  47
HETATM   47  O4  MAN C   3      46.328  17.018  40.240  1.00 64.75    -0.390 OA
HETATM   48  HO4 MAN C   3      46.430  17.242  39.301  1.00 77.70     0.210 HD
ENDBRANCH  40  47
BRANCH  41  49
HETATM   49  C6  MAN C   3      44.054  17.972  42.707  1.00 61.73     0.244 C 
HETATM   50  O6  MAN C   3      43.897  19.011  41.744  1.00 62.74    -0.238 OA
ENDBRANCH  41  49
ENDBRANCH  35  37
ENDBRANCH   4  35
TORSDOF 16
ENDMDL
MODEL 15
REMARK VINA RESULT:    -7.013      3.245      5.804
REMARK INTER + INTRA:         -13.636
REMARK INTER:                 -11.365
REMARK INTRA:                  -2.271
REMARK UNBOUND:                -1.498
REMARK  16 active torsions:
REMARK  status: ('A' for Active; 'I' for Inactive)
REMARK    1  A    between atoms: C2_2  and  N2_3 
REMARK       I    between atoms: N2_3  and  C7_12 
REMARK    2  A    between atoms: C3_4  and  O3_5 
REMARK    3  A    between atoms: C4_6  and  O4_7 
REMARK    4  A    between atoms: O4_7  and  C1_19 
REMARK    5  A    between atoms: C5_8  and  C6_10 
REMARK    6  A    between atoms: C6_10  and  O6_11 
REMARK    7  A    between atoms: C2_20  and  N2_21 
REMARK       I    between atoms: N2_21  and  C7_30 
REMARK    8  A    between atoms: C3_22  and  O3_23 
REMARK    9  A    between atoms: C4_24  and  O4_25 
REMARK   10  A    between atoms: O4_25  and  C1_37 
REMARK   11  A    between atoms: C5_26  and  C6_28 
REMARK   12  A    between atoms: C6_28  and  O6_29 
REMARK   13  A    between atoms: C2_38  and  O2_39 
REMARK   14  A    between atoms: C3_40  and  O3_41 
REMARK   15  A    between atoms: C4_42  and  O4_43 
REMARK   16  A    between atoms: C5_44  and  C6_46 
ROOT
HETATM    1  C1  NAG C   2      39.135  11.985  44.032  1.00 45.72     0.178 C 
HETATM    2  C2  NAG C   2      40.284  11.185  44.657  1.00 49.06     0.145 C 
HETATM    3  C3  NAG C   2      41.633  11.835  44.342  1.00 52.65     0.150 C 
HETATM    4  C4  NAG C   2      41.777  12.109  42.851  1.00 54.97     0.057 C 
HETATM    5  C5  NAG C   2      40.568  12.894  42.354  1.00 50.27     0.153 C 
HETATM    6  O5  NAG C   2      39.371  12.158  42.640  1.00 46.44    -0.373 OA
ENDROOT
BRANCH   1   7
HETATM    7  O4  NAG C   1      37.906  11.270  44.270  1.00 39.58     0.000 OA
HETATM    8  HO4 NAG C   1      37.401  11.052  44.968  1.00 47.49     0.000 HD
BRANCH   7   9
HETATM    9  C4  NAG C   1      37.310  10.769  43.078  1.00 34.44     0.057 C 
HETATM   10  C3  NAG C   1      36.804   9.350  43.307  1.00 34.15     0.150 C 
HETATM   11  C2  NAG C   1      35.994   8.849  42.103  1.00 32.59     0.145 C 
HETATM   12  C1  NAG C   1      34.917   9.871  41.716  1.00 28.24     0.178 C 
HETATM   13  O5  NAG C   1      35.520  11.153  41.512  1.00 32.77    -0.373 OA
HETATM   14  C5  NAG C   1      36.145  11.670  42.694  1.00 32.91     0.153 C 
BRANCH  10  15
HETATM   15  O3  NAG C   1      37.905   8.476  43.535  1.00 36.22    -0.393 OA
HETATM   16  HO3 NAG C   1      38.365   8.378  42.783  1.00 43.47     0.210 HD
ENDBRANCH  10  15
BRANCH  11  17
HETATM   17  N2  NAG C   1      35.392   7.560  42.403  1.00 32.25    -0.352 N 
HETATM   18  HN2 NAG C   1      34.585   7.551  42.829  1.00 38.70     0.163 HD
HETATM   19  C7  NAG C   1      35.960   6.385  42.105  1.00 31.56     0.214 C 
HETATM   20  O7  NAG C   1      37.046   6.310  41.538  1.00 31.67    -0.274 OA
HETATM   21  C8  NAG C   1      35.185   5.164  42.505  1.00 31.40     0.117 C 
ENDBRANCH  11  17
BRANCH  14  22
HETATM   22  C6  NAG C   1      36.558  13.092  42.394  1.00 33.57     0.196 C 
BRANCH  22  23
HETATM   23  O6  NAG C   1      37.107  13.210  41.089  1.00 38.40    -0.398 OA
HETATM   24  HO6 NAG C   1      37.395  12.415  40.816  1.00 46.08     0.209 HD
ENDBRANCH  22  23
ENDBRANCH  14  22
ENDBRANCH   7   9
ENDBRANCH   1   7
BRANCH   2  25
HETATM   25  N2  NAG C   2      40.107  11.068  46.096  1.00 46.80    -0.352 N 
HETATM   26  HN2 NAG C   2      40.367  11.768  46.621  1.00 56.16     0.163 HD
HETATM   27  C7  NAG C   2      39.590   9.988  46.693  1.00 45.80     0.214 C 
HETATM   28  O7  NAG C   2      39.218   9.004  46.056  1.00 44.31    -0.274 OA
HETATM   29  C8  NAG C   2      39.490  10.051  48.188  1.00 43.27     0.117 C 
ENDBRANCH   2  25
BRANCH   3  30
HETATM   30  O3  NAG C   2      42.676  10.967  44.773  1.00 54.04    -0.393 OA
HETATM   31  HO3 NAG C   2      42.884  11.150  45.617  1.00 64.84     0.210 HD
ENDBRANCH   3  30
BRANCH   5  32
HETATM   32  C6  NAG C   2      40.587  13.137  40.863  1.00 49.47     0.196 C 
BRANCH  32  33
HETATM   33  O6  NAG C   2      41.482  12.252  40.205  1.00 49.56    -0.398 OA
HETATM   34  HO6 NAG C   2      41.282  12.217  39.340  1.00 59.47     0.209 HD
ENDBRANCH  32  33
ENDBRANCH   5  32
BRANCH   4  35
HETATM   35  O4  NAG C   2      42.953  12.878  42.620  1.00 61.24     0.000 OA
HETATM   36  HO4 NAG C   2      43.402  12.535  41.935  1.00 73.48     0.000 HD
BRANCH  35  37
HETATM   37  C1  MAN C   3      43.076  14.022  43.497  1.00 61.12     0.185 C 
HETATM   38  C2  MAN C   3      43.299  15.241  42.583  1.00 64.56     0.181 C 
HETATM   39  C3  MAN C   3      44.787  15.534  42.506  1.00 65.99     0.180 C 
HETATM   40  C4  MAN C   3      45.294  16.000  43.869  1.00 63.78     0.180 C 
HETATM   41  C5  MAN C   3      44.903  14.984  44.973  1.00 60.29     0.180 C 
HETATM   42  O5  MAN C   3      44.128  13.824  44.451  1.00 59.70    -0.370 OA
BRANCH  38  43
HETATM   43  O2  MAN C   3      42.679  16.420  43.115  1.00 65.84    -0.390 OA
HETATM   44  HO2 MAN C   3      42.052  16.765  42.468  1.00 79.01     0.210 HD
ENDBRANCH  38  43
BRANCH  39  45
HETATM   45  O3  MAN C   3      45.100  16.496  41.497  1.00 68.47    -0.390 OA
HETATM   46  HO3 MAN C   3      44.789  16.104  40.664  1.00 82.16     0.210 HD
ENDBRANCH  39  45
BRANCH  40  47
HETATM   47  O4  MAN C   3      46.713  16.141  43.836  1.00 64.75    -0.390 OA
HETATM   48  HO4 MAN C   3      46.887  16.836  43.182  1.00 77.70     0.210 HD
ENDBRANCH  40  47
BRANCH  41  49
HETATM   49  C6  MAN C   3      44.115  15.621  46.105  1.00 61.73     0.244 C 
HETATM   50  O6  MAN C   3      43.680  14.569  46.963  1.00 62.74    -0.238 OA
ENDBRANCH  41  49
ENDBRANCH  35  37
ENDBRANCH   4  35
TORSDOF 16
ENDMDL
MODEL 16
REMARK VINA RESULT:    -6.968      3.644      8.515
REMARK INTER + INTRA:         -13.558
REMARK INTER:                 -11.016
REMARK INTRA:                  -2.541
REMARK UNBOUND:                -1.498
REMARK  16 active torsions:
REMARK  status: ('A' for Active; 'I' for Inactive)
REMARK    1  A    between atoms: C2_2  and  N2_3 
REMARK       I    between atoms: N2_3  and  C7_12 
REMARK    2  A    between atoms: C3_4  and  O3_5 
REMARK    3  A    between atoms: C4_6  and  O4_7 
REMARK    4  A    between atoms: O4_7  and  C1_19 
REMARK    5  A    between atoms: C5_8  and  C6_10 
REMARK    6  A    between atoms: C6_10  and  O6_11 
REMARK    7  A    between atoms: C2_20  and  N2_21 
REMARK       I    between atoms: N2_21  and  C7_30 
REMARK    8  A    between atoms: C3_22  and  O3_23 
REMARK    9  A    between atoms: C4_24  and  O4_25 
REMARK   10  A    between atoms: O4_25  and  C1_37 
REMARK   11  A    between atoms: C5_26  and  C6_28 
REMARK   12  A    between atoms: C6_28  and  O6_29 
REMARK   13  A    between atoms: C2_38  and  O2_39 
REMARK   14  A    between atoms: C3_40  and  O3_41 
REMARK   15  A    between atoms: C4_42  and  O4_43 
REMARK   16  A    between atoms: C5_44  and  C6_46 
ROOT
HETATM    1  C1  NAG C   2      44.431  15.451  43.942  1.00 45.72     0.178 C 
HETATM    2  C2  NAG C   2      43.776  15.720  42.582  1.00 49.06     0.145 C 
HETATM    3  C3  NAG C   2      42.252  15.623  42.683  1.00 52.65     0.150 C 
HETATM    4  C4  NAG C   2      41.828  14.323  43.354  1.00 54.97     0.057 C 
HETATM    5  C5  NAG C   2      42.559  14.168  44.683  1.00 50.27     0.153 C 
HETATM    6  O5  NAG C   2      43.975  14.205  44.456  1.00 46.44    -0.373 OA
ENDROOT
BRANCH   1   7
HETATM    7  O4  NAG C   1      45.861  15.450  43.762  1.00 39.58     0.000 OA
HETATM    8  HO4 NAG C   1      46.442  15.185  43.145  1.00 47.49     0.000 HD
BRANCH   7   9
HETATM    9  C4  NAG C   1      46.563  16.035  44.854  1.00 34.44     0.057 C 
HETATM   10  C3  NAG C   1      45.923  17.366  45.229  1.00 34.15     0.150 C 
HETATM   11  C2  NAG C   1      46.537  17.933  46.517  1.00 32.59     0.145 C 
HETATM   12  C1  NAG C   1      46.536  16.873  47.627  1.00 28.24     0.178 C 
HETATM   13  O5  NAG C   1      47.178  15.684  47.158  1.00 32.77    -0.373 OA
HETATM   14  C5  NAG C   1      46.501  15.087  46.043  1.00 32.91     0.153 C 
BRANCH  10  15
HETATM   15  O3  NAG C   1      46.096  18.301  44.169  1.00 36.22    -0.393 OA
HETATM   16  HO3 NAG C   1      46.072  17.874  43.392  1.00 43.47     0.210 HD
ENDBRANCH  10  15
BRANCH  11  17
HETATM   17  N2  NAG C   1      45.809  19.119  46.941  1.00 32.25    -0.352 N 
HETATM   18  HN2 NAG C   1      45.078  19.007  47.475  1.00 38.70     0.163 HD
HETATM   19  C7  NAG C   1      46.142  20.365  46.582  1.00 31.56     0.214 C 
HETATM   20  O7  NAG C   1      47.108  20.602  45.863  1.00 31.67    -0.274 OA
HETATM   21  C8  NAG C   1      45.262  21.456  47.116  1.00 31.40     0.117 C 
ENDBRANCH  11  17
BRANCH  14  22
HETATM   22  C6  NAG C   1      47.162  13.753  45.784  1.00 33.57     0.196 C 
BRANCH  22  23
HETATM   23  O6  NAG C   1      46.232  12.796  45.297  1.00 38.40    -0.398 OA
HETATM   24  HO6 NAG C   1      45.459  13.197  45.122  1.00 46.08     0.209 HD
ENDBRANCH  22  23
ENDBRANCH  14  22
ENDBRANCH   7   9
ENDBRANCH   1   7
BRANCH   2  25
HETATM   25  N2  NAG C   2      44.162  17.028  42.075  1.00 46.80    -0.352 N 
HETATM   26  HN2 NAG C   2      43.706  17.759  42.376  1.00 56.16     0.163 HD
HETATM   27  C7  NAG C   2      45.146  17.218  41.189  1.00 45.80     0.214 C 
HETATM   28  O7  NAG C   2      45.806  16.285  40.735  1.00 44.31    -0.274 OA
HETATM   29  C8  NAG C   2      45.396  18.639  40.782  1.00 43.27     0.117 C 
ENDBRANCH   2  25
BRANCH   3  30
HETATM   30  O3  NAG C   2      41.697  15.690  41.375  1.00 54.04    -0.393 OA
HETATM   31  HO3 NAG C   2      42.242  16.151  40.846  1.00 64.84     0.210 HD
ENDBRANCH   3  30
BRANCH   5  32
HETATM   32  C6  NAG C   2      42.260  12.861  45.379  1.00 49.47     0.196 C 
BRANCH  32  33
HETATM   33  O6  NAG C   2      43.323  11.932  45.215  1.00 49.56    -0.398 OA
HETATM   34  HO6 NAG C   2      43.893  12.012  45.892  1.00 59.47     0.209 HD
ENDBRANCH  32  33
ENDBRANCH   5  32
BRANCH   4  35
HETATM   35  O4  NAG C   2      40.426  14.350  43.600  1.00 61.24     0.000 OA
HETATM   36  HO4 NAG C   2      40.202  15.135  43.952  1.00 73.48     0.000 HD
BRANCH  35  37
HETATM   37  C1  MAN C   3      39.740  13.151  43.169  1.00 61.12     0.185 C 
HETATM   38  C2  MAN C   3      39.059  13.504  41.834  1.00 64.56     0.181 C 
HETATM   39  C3  MAN C   3      37.607  13.862  42.102  1.00 65.99     0.180 C 
HETATM   40  C4  MAN C   3      36.850  12.627  42.584  1.00 63.78     0.180 C 
HETATM   41  C5  MAN C   3      37.578  11.979  43.791  1.00 60.29     0.180 C 
HETATM   42  O5  MAN C   3      38.825  12.695  44.174  1.00 59.70    -0.370 OA
BRANCH  38  43
HETATM   43  O2  MAN C   3      39.044  12.386  40.937  1.00 65.84    -0.390 OA
HETATM   44  HO2 MAN C   3      38.644  12.657  40.102  1.00 79.01     0.210 HD
ENDBRANCH  38  43
BRANCH  39  45
HETATM   45  O3  MAN C   3      36.967  14.428  40.956  1.00 68.47    -0.390 OA
HETATM   46  HO3 MAN C   3      37.665  14.504  40.284  1.00 82.16     0.210 HD
ENDBRANCH  39  45
BRANCH  40  47
HETATM   47  O4  MAN C   3      35.525  12.988  42.969  1.00 64.75    -0.390 OA
HETATM   48  HO4 MAN C   3      35.364  13.850  42.554  1.00 77.70     0.210 HD
ENDBRANCH  40  47
BRANCH  41  49
HETATM   49  C6  MAN C   3      37.914  10.515  43.557  1.00 61.73     0.244 C 
HETATM   50  O6  MAN C   3      36.681   9.803  43.489  1.00 62.74    -0.238 OA
ENDBRANCH  41  49
ENDBRANCH  35  37
ENDBRANCH   4  35
TORSDOF 16
ENDMDL
MODEL 17
REMARK VINA RESULT:    -6.949      4.650     11.096
REMARK INTER + INTRA:         -13.524
REMARK INTER:                 -11.136
REMARK INTRA:                  -2.388
REMARK UNBOUND:                -1.498
REMARK  16 active torsions:
REMARK  status: ('A' for Active; 'I' for Inactive)
REMARK    1  A    between atoms: C2_2  and  N2_3 
REMARK       I    between atoms: N2_3  and  C7_12 
REMARK    2  A    between atoms: C3_4  and  O3_5 
REMARK    3  A    between atoms: C4_6  and  O4_7 
REMARK    4  A    between atoms: O4_7  and  C1_19 
REMARK    5  A    between atoms: C5_8  and  C6_10 
REMARK    6  A    between atoms: C6_10  and  O6_11 
REMARK    7  A    between atoms: C2_20  and  N2_21 
REMARK       I    between atoms: N2_21  and  C7_30 
REMARK    8  A    between atoms: C3_22  and  O3_23 
REMARK    9  A    between atoms: C4_24  and  O4_25 
REMARK   10  A    between atoms: O4_25  and  C1_37 
REMARK   11  A    between atoms: C5_26  and  C6_28 
REMARK   12  A    between atoms: C6_28  and  O6_29 
REMARK   13  A    between atoms: C2_38  and  O2_39 
REMARK   14  A    between atoms: C3_40  and  O3_41 
REMARK   15  A    between atoms: C4_42  and  O4_43 
REMARK   16  A    between atoms: C5_44  and  C6_46 
ROOT
HETATM    1  C1  NAG C   2      46.334  18.425  41.427  1.00 45.72     0.178 C 
HETATM    2  C2  NAG C   2      45.171  18.986  42.254  1.00 49.06     0.145 C 
HETATM    3  C3  NAG C   2      43.942  18.080  42.149  1.00 52.65     0.150 C 
HETATM    4  C4  NAG C   2      43.607  17.773  40.695  1.00 54.97     0.057 C 
HETATM    5  C5  NAG C   2      44.846  17.240  39.985  1.00 50.27     0.153 C 
HETATM    6  O5  NAG C   2      45.906  18.200  40.089  1.00 46.44    -0.373 OA
ENDROOT
BRANCH   1   7
HETATM    7  O4  NAG C   1      47.421  19.371  41.478  1.00 39.58     0.000 OA
HETATM    8  HO4 NAG C   1      47.533  20.225  41.690  1.00 47.49     0.000 HD
BRANCH   7   9
HETATM    9  C4  NAG C   1      48.671  18.807  41.094  1.00 34.44     0.057 C 
HETATM   10  C3  NAG C   1      49.120  19.400  39.764  1.00 34.15     0.150 C 
HETATM   11  C2  NAG C   1      50.547  18.955  39.413  1.00 32.59     0.145 C 
HETATM   12  C1  NAG C   1      51.496  19.206  40.593  1.00 28.24     0.178 C 
HETATM   13  O5  NAG C   1      50.973  18.587  41.772  1.00 32.77    -0.373 OA
HETATM   14  C5  NAG C   1      49.703  19.123  42.167  1.00 32.91     0.153 C 
BRANCH  10  15
HETATM   15  O3  NAG C   1      48.229  18.995  38.730  1.00 36.22    -0.393 OA
HETATM   16  HO3 NAG C   1      48.645  19.039  37.947  1.00 43.47     0.210 HD
ENDBRANCH  10  15
BRANCH  11  17
HETATM   17  N2  NAG C   1      51.013  19.651  38.224  1.00 32.25    -0.352 N 
HETATM   18  HN2 NAG C   1      50.968  20.562  38.214  1.00 38.70     0.163 HD
HETATM   19  C7  NAG C   1      51.490  19.032  37.137  1.00 31.56     0.214 C 
HETATM   20  O7  NAG C   1      51.579  17.810  37.068  1.00 31.67    -0.274 OA
HETATM   21  C8  NAG C   1      51.913  19.925  36.009  1.00 31.40     0.117 C 
ENDBRANCH  11  17
BRANCH  14  22
HETATM   22  C6  NAG C   1      49.369  18.529  43.516  1.00 33.57     0.196 C 
BRANCH  22  23
HETATM   23  O6  NAG C   1      48.519  19.384  44.266  1.00 38.40    -0.398 OA
HETATM   24  HO6 NAG C   1      48.732  20.230  44.105  1.00 46.08     0.209 HD
ENDBRANCH  22  23
ENDBRANCH  14  22
ENDBRANCH   7   9
ENDBRANCH   1   7
BRANCH   2  25
HETATM   25  N2  NAG C   2      45.559  19.145  43.647  1.00 46.80    -0.352 N 
HETATM   26  HN2 NAG C   2      46.203  18.591  43.981  1.00 56.16     0.163 HD
HETATM   27  C7  NAG C   2      45.020  20.054  44.467  1.00 45.80     0.214 C 
HETATM   28  O7  NAG C   2      44.148  20.835  44.093  1.00 44.31    -0.274 OA
HETATM   29  C8  NAG C   2      45.548  20.065  45.870  1.00 43.27     0.117 C 
ENDBRANCH   2  25
BRANCH   3  30
HETATM   30  O3  NAG C   2      42.836  18.727  42.770  1.00 54.04    -0.393 OA
HETATM   31  HO3 NAG C   2      42.128  18.677  42.237  1.00 64.84     0.210 HD
ENDBRANCH   3  30
BRANCH   5  32
HETATM   32  C6  NAG C   2      44.626  16.989  38.511  1.00 49.47     0.196 C 
BRANCH  32  33
HETATM   33  O6  NAG C   2      44.267  15.636  38.264  1.00 49.56    -0.398 OA
HETATM   34  HO6 NAG C   2      44.713  15.336  37.557  1.00 59.47     0.209 HD
ENDBRANCH  32  33
ENDBRANCH   5  32
BRANCH   4  35
HETATM   35  O4  NAG C   2      42.584  16.785  40.641  1.00 61.24     0.000 OA
HETATM   36  HO4 NAG C   2      41.928  17.066  40.112  1.00 73.48     0.000 HD
BRANCH  35  37
HETATM   37  C1  MAN C   3      42.895  15.589  41.393  1.00 61.12     0.185 C 
HETATM   38  C2  MAN C   3      41.908  14.510  40.909  1.00 64.56     0.181 C 
HETATM   39  C3  MAN C   3      40.741  14.440  41.879  1.00 65.99     0.180 C 
HETATM   40  C4  MAN C   3      41.223  13.916  43.231  1.00 63.78     0.180 C 
HETATM   41  C5  MAN C   3      42.425  14.753  43.742  1.00 60.29     0.180 C 
HETATM   42  O5  MAN C   3      42.823  15.838  42.804  1.00 59.70    -0.370 OA
BRANCH  38  43
HETATM   43  O2  MAN C   3      42.511  13.209  40.902  1.00 65.84    -0.390 OA
HETATM   44  HO2 MAN C   3      43.005  13.096  40.081  1.00 79.01     0.210 HD
ENDBRANCH  38  43
BRANCH  39  45
HETATM   45  O3  MAN C   3      39.670  13.636  41.382  1.00 68.47    -0.390 OA
HETATM   46  HO3 MAN C   3      39.773  13.640  40.416  1.00 82.16     0.210 HD
ENDBRANCH  39  45
BRANCH  40  47
HETATM   47  O4  MAN C   3      40.162  13.980  44.182  1.00 64.75    -0.390 OA
HETATM   48  HO4 MAN C   3      39.788  13.086  44.209  1.00 77.70     0.210 HD
ENDBRANCH  40  47
BRANCH  41  49
HETATM   49  C6  MAN C   3      43.647  13.902  44.043  1.00 61.73     0.244 C 
HETATM   50  O6  MAN C   3      43.339  12.566  43.654  1.00 62.74    -0.238 OA
ENDBRANCH  41  49
ENDBRANCH  35  37
ENDBRANCH   4  35
TORSDOF 16
ENDMDL
MODEL 18
REMARK VINA RESULT:    -6.879      3.199      7.644
REMARK INTER + INTRA:         -13.404
REMARK INTER:                 -10.602
REMARK INTRA:                  -2.802
REMARK UNBOUND:                -1.498
REMARK  16 active torsions:
REMARK  status: ('A' for Active; 'I' for Inactive)
REMARK    1  A    between atoms: C2_2  and  N2_3 
REMARK       I    between atoms: N2_3  and  C7_12 
REMARK    2  A    between atoms: C3_4  and  O3_5 
REMARK    3  A    between atoms: C4_6  and  O4_7 
REMARK    4  A    between atoms: O4_7  and  C1_19 
REMARK    5  A    between atoms: C5_8  and  C6_10 
REMARK    6  A    between atoms: C6_10  and  O6_11 
REMARK    7  A    between atoms: C2_20  and  N2_21 
REMARK       I    between atoms: N2_21  and  C7_30 
REMARK    8  A    between atoms: C3_22  and  O3_23 
REMARK    9  A    between atoms: C4_24  and  O4_25 
REMARK   10  A    between atoms: O4_25  and  C1_37 
REMARK   11  A    between atoms: C5_26  and  C6_28 
REMARK   12  A    between atoms: C6_28  and  O6_29 
REMARK   13  A    between atoms: C2_38  and  O2_39 
REMARK   14  A    between atoms: C3_40  and  O3_41 
REMARK   15  A    between atoms: C4_42  and  O4_43 
REMARK   16  A    between atoms: C5_44  and  C6_46 
ROOT
HETATM    1  C1  NAG C   2      43.762  14.624  43.759  1.00 45.72     0.178 C 
HETATM    2  C2  NAG C   2      43.314  15.553  42.624  1.00 49.06     0.145 C 
HETATM    3  C3  NAG C   2      41.885  15.226  42.186  1.00 52.65     0.150 C 
HETATM    4  C4  NAG C   2      41.724  13.739  41.900  1.00 54.97     0.057 C 
HETATM    5  C5  NAG C   2      42.218  12.930  43.094  1.00 50.27     0.153 C 
HETATM    6  O5  NAG C   2      43.585  13.268  43.368  1.00 46.44    -0.373 OA
ENDROOT
BRANCH   1   7
HETATM    7  O4  NAG C   1      45.144  14.908  44.055  1.00 39.58     0.000 OA
HETATM    8  HO4 NAG C   1      45.885  15.090  43.601  1.00 47.49     0.000 HD
BRANCH   7   9
HETATM    9  C4  NAG C   1      45.429  14.910  45.450  1.00 34.44     0.057 C 
HETATM   10  C3  NAG C   1      44.367  15.709  46.195  1.00 34.15     0.150 C 
HETATM   11  C2  NAG C   1      44.539  15.577  47.715  1.00 32.59     0.145 C 
HETATM   12  C1  NAG C   1      44.647  14.100  48.119  1.00 28.24     0.178 C 
HETATM   13  O5  NAG C   1      45.686  13.469  47.365  1.00 32.77    -0.373 OA
HETATM   14  C5  NAG C   1      45.432  13.473  45.953  1.00 32.91     0.153 C 
BRANCH  10  15
HETATM   15  O3  NAG C   1      44.449  17.082  45.826  1.00 36.22    -0.393 OA
HETATM   16  HO3 NAG C   1      44.877  17.533  46.458  1.00 43.47     0.210 HD
ENDBRANCH  10  15
BRANCH  11  17
HETATM   17  N2  NAG C   1      43.429  16.216  48.404  1.00 32.25    -0.352 N 
HETATM   18  HN2 NAG C   1      42.656  15.743  48.506  1.00 38.70     0.163 HD
HETATM   19  C7  NAG C   1      43.470  17.465  48.885  1.00 31.56     0.214 C 
HETATM   20  O7  NAG C   1      44.470  18.171  48.784  1.00 31.67    -0.274 OA
HETATM   21  C8  NAG C   1      42.220  17.949  49.556  1.00 31.40     0.117 C 
ENDBRANCH  11  17
BRANCH  14  22
HETATM   22  C6  NAG C   1      46.493  12.612  45.308  1.00 33.57     0.196 C 
BRANCH  22  23
HETATM   23  O6  NAG C   1      45.967  11.865  44.220  1.00 38.40    -0.398 OA
HETATM   24  HO6 NAG C   1      45.684  12.421  43.589  1.00 46.08     0.209 HD
ENDBRANCH  22  23
ENDBRANCH  14  22
ENDBRANCH   7   9
ENDBRANCH   1   7
BRANCH   2  25
HETATM   25  N2  NAG C   2      43.407  16.947  43.033  1.00 46.80    -0.352 N 
HETATM   26  HN2 NAG C   2      43.157  17.164  43.883  1.00 56.16     0.163 HD
HETATM   27  C7  NAG C   2      43.832  17.927  42.228  1.00 45.80     0.214 C 
HETATM   28  O7  NAG C   2      44.184  17.715  41.069  1.00 44.31    -0.274 OA
HETATM   29  C8  NAG C   2      43.855  19.302  42.827  1.00 43.27     0.117 C 
ENDBRANCH   2  25
BRANCH   3  30
HETATM   30  O3  NAG C   2      41.578  15.975  41.015  1.00 54.04    -0.393 OA
HETATM   31  HO3 NAG C   2      40.919  15.576  40.573  1.00 64.84     0.210 HD
ENDBRANCH   3  30
BRANCH   5  32
HETATM   32  C6  NAG C   2      42.174  11.438  42.862  1.00 49.47     0.196 C 
BRANCH  32  33
HETATM   33  O6  NAG C   2      43.329  10.797  43.388  1.00 49.56    -0.398 OA
HETATM   34  HO6 NAG C   2      43.667  10.250  42.776  1.00 59.47     0.209 HD
ENDBRANCH  32  33
ENDBRANCH   5  32
BRANCH   4  35
HETATM   35  O4  NAG C   2      40.350  13.442  41.679  1.00 61.24     0.000 OA
HETATM   36  HO4 NAG C   2      40.172  13.491  40.809  1.00 73.48     0.000 HD
BRANCH  35  37
HETATM   37  C1  MAN C   3      39.633  13.090  42.885  1.00 61.12     0.185 C 
HETATM   38  C2  MAN C   3      38.591  12.035  42.471  1.00 64.56     0.181 C 
HETATM   39  C3  MAN C   3      37.254  12.724  42.252  1.00 65.99     0.180 C 
HETATM   40  C4  MAN C   3      36.725  13.261  43.581  1.00 63.78     0.180 C 
HETATM   41  C5  MAN C   3      37.792  14.149  44.272  1.00 60.29     0.180 C 
HETATM   42  O5  MAN C   3      39.058  14.253  43.497  1.00 59.70    -0.370 OA
BRANCH  38  43
HETATM   43  O2  MAN C   3      38.384  11.064  43.506  1.00 65.84    -0.390 OA
HETATM   44  HO2 MAN C   3      39.210  10.938  43.989  1.00 79.01     0.210 HD
ENDBRANCH  38  43
BRANCH  39  45
HETATM   45  O3  MAN C   3      36.293  11.861  41.641  1.00 68.47    -0.390 OA
HETATM   46  HO3 MAN C   3      36.761  11.440  40.900  1.00 82.16     0.210 HD
ENDBRANCH  39  45
BRANCH  40  47
HETATM   47  O4  MAN C   3      35.543  14.027  43.358  1.00 64.75    -0.390 OA
HETATM   48  HO4 MAN C   3      34.856  13.379  43.135  1.00 77.70     0.210 HD
ENDBRANCH  40  47
BRANCH  41  49
HETATM   49  C6  MAN C   3      38.124  13.681  45.679  1.00 61.73     0.244 C 
HETATM   50  O6  MAN C   3      37.453  12.439  45.881  1.00 62.74    -0.238 OA
ENDBRANCH  41  49
ENDBRANCH  35  37
ENDBRANCH   4  35
TORSDOF 16
ENDMDL
MODEL 19
REMARK VINA RESULT:    -6.876      3.232      8.804
REMARK INTER + INTRA:         -13.399
REMARK INTER:                 -10.534
REMARK INTRA:                  -2.865
REMARK UNBOUND:                -1.498
REMARK  16 active torsions:
REMARK  status: ('A' for Active; 'I' for Inactive)
REMARK    1  A    between atoms: C2_2  and  N2_3 
REMARK       I    between atoms: N2_3  and  C7_12 
REMARK    2  A    between atoms: C3_4  and  O3_5 
REMARK    3  A    between atoms: C4_6  and  O4_7 
REMARK    4  A    between atoms: O4_7  and  C1_19 
REMARK    5  A    between atoms: C5_8  and  C6_10 
REMARK    6  A    between atoms: C6_10  and  O6_11 
REMARK    7  A    between atoms: C2_20  and  N2_21 
REMARK       I    between atoms: N2_21  and  C7_30 
REMARK    8  A    between atoms: C3_22  and  O3_23 
REMARK    9  A    between atoms: C4_24  and  O4_25 
REMARK   10  A    between atoms: O4_25  and  C1_37 
REMARK   11  A    between atoms: C5_26  and  C6_28 
REMARK   12  A    between atoms: C6_28  and  O6_29 
REMARK   13  A    between atoms: C2_38  and  O2_39 
REMARK   14  A    between atoms: C3_40  and  O3_41 
REMARK   15  A    between atoms: C4_42  and  O4_43 
REMARK   16  A    between atoms: C5_44  and  C6_46 
ROOT
HETATM    1  C1  NAG C   2      43.971  14.558  43.706  1.00 45.72     0.178 C 
HETATM    2  C2  NAG C   2      43.410  13.539  44.706  1.00 49.06     0.145 C 
HETATM    3  C3  NAG C   2      42.575  12.476  43.989  1.00 52.65     0.150 C 
HETATM    4  C4  NAG C   2      41.539  13.116  43.073  1.00 54.97     0.057 C 
HETATM    5  C5  NAG C   2      42.221  14.114  42.145  1.00 50.27     0.153 C 
HETATM    6  O5  NAG C   2      42.911  15.099  42.926  1.00 46.44    -0.373 OA
ENDROOT
BRANCH   1   7
HETATM    7  O4  NAG C   1      44.655  15.588  44.447  1.00 39.58     0.000 OA
HETATM    8  HO4 NAG C   1      44.537  16.034  45.206  1.00 47.49     0.000 HD
BRANCH   7   9
HETATM    9  C4  NAG C   1      45.855  16.027  43.819  1.00 34.44     0.057 C 
HETATM   10  C3  NAG C   1      45.565  17.230  42.930  1.00 34.15     0.150 C 
HETATM   11  C2  NAG C   1      46.863  17.842  42.384  1.00 32.59     0.145 C 
HETATM   12  C1  NAG C   1      47.859  18.097  43.523  1.00 28.24     0.178 C 
HETATM   13  O5  NAG C   1      48.058  16.892  44.268  1.00 32.77    -0.373 OA
HETATM   14  C5  NAG C   1      46.858  16.418  44.894  1.00 32.91     0.153 C 
BRANCH  10  15
HETATM   15  O3  NAG C   1      44.732  16.838  41.844  1.00 36.22    -0.393 OA
HETATM   16  HO3 NAG C   1      43.885  16.824  42.110  1.00 43.47     0.210 HD
ENDBRANCH  10  15
BRANCH  11  17
HETATM   17  N2  NAG C   1      46.576  19.075  41.669  1.00 32.25    -0.352 N 
HETATM   18  HN2 NAG C   1      46.220  19.771  42.138  1.00 38.70     0.163 HD
HETATM   19  C7  NAG C   1      46.790  19.243  40.358  1.00 31.56     0.214 C 
HETATM   20  O7  NAG C   1      47.261  18.355  39.654  1.00 31.67    -0.274 OA
HETATM   21  C8  NAG C   1      46.421  20.586  39.802  1.00 31.40     0.117 C 
ENDBRANCH  11  17
BRANCH  14  22
HETATM   22  C6  NAG C   1      47.250  15.271  45.796  1.00 33.57     0.196 C 
BRANCH  22  23
HETATM   23  O6  NAG C   1      47.186  14.026  45.114  1.00 38.40    -0.398 OA
HETATM   24  HO6 NAG C   1      46.341  13.845  44.909  1.00 46.08     0.209 HD
ENDBRANCH  22  23
ENDBRANCH  14  22
ENDBRANCH   7   9
ENDBRANCH   1   7
BRANCH   2  25
HETATM   25  N2  NAG C   2      44.485  12.910  45.457  1.00 46.80    -0.352 N 
HETATM   26  HN2 NAG C   2      45.253  12.694  45.013  1.00 56.16     0.163 HD
HETATM   27  C7  NAG C   2      44.408  12.625  46.762  1.00 45.80     0.214 C 
HETATM   28  O7  NAG C   2      43.408  12.883  47.429  1.00 44.31    -0.274 OA
HETATM   29  C8  NAG C   2      45.618  11.973  47.362  1.00 43.27     0.117 C 
ENDBRANCH   2  25
BRANCH   3  30
HETATM   30  O3  NAG C   2      41.922  11.668  44.961  1.00 54.04    -0.393 OA
HETATM   31  HO3 NAG C   2      41.412  12.180  45.477  1.00 64.84     0.210 HD
ENDBRANCH   3  30
BRANCH   5  32
HETATM   32  C6  NAG C   2      41.252  14.860  41.257  1.00 49.47     0.196 C 
BRANCH  32  33
HETATM   33  O6  NAG C   2      41.791  16.104  40.831  1.00 49.56    -0.398 OA
HETATM   34  HO6 NAG C   2      41.372  16.372  40.096  1.00 59.47     0.209 HD
ENDBRANCH  32  33
ENDBRANCH   5  32
BRANCH   4  35
HETATM   35  O4  NAG C   2      40.912  12.108  42.287  1.00 61.24     0.000 OA
HETATM   36  HO4 NAG C   2      41.465  11.849  41.642  1.00 73.48     0.000 HD
BRANCH  35  37
HETATM   37  C1  MAN C   3      39.599  11.736  42.765  1.00 61.12     0.185 C 
HETATM   38  C2  MAN C   3      38.597  12.268  41.723  1.00 64.56     0.181 C 
HETATM   39  C3  MAN C   3      38.051  13.602  42.202  1.00 65.99     0.180 C 
HETATM   40  C4  MAN C   3      37.201  13.393  43.454  1.00 63.78     0.180 C 
HETATM   41  C5  MAN C   3      37.999  12.610  44.530  1.00 60.29     0.180 C 
HETATM   42  O5  MAN C   3      39.372  12.243  44.087  1.00 59.70    -0.370 OA
BRANCH  38  43
HETATM   43  O2  MAN C   3      37.470  11.394  41.580  1.00 65.84    -0.390 OA
HETATM   44  HO2 MAN C   3      36.989  11.361  42.416  1.00 79.01     0.210 HD
ENDBRANCH  38  43
BRANCH  39  45
HETATM   45  O3  MAN C   3      37.299  14.276  41.191  1.00 68.47    -0.390 OA
HETATM   46  HO3 MAN C   3      37.085  15.146  41.568  1.00 82.16     0.210 HD
ENDBRANCH  39  45
BRANCH  40  47
HETATM   47  O4  MAN C   3      36.802  14.655  43.986  1.00 64.75    -0.390 OA
HETATM   48  HO4 MAN C   3      37.168  15.317  43.378  1.00 77.70     0.210 HD
ENDBRANCH  40  47
BRANCH  41  49
HETATM   49  C6  MAN C   3      37.286  11.348  44.986  1.00 61.73     0.244 C 
HETATM   50  O6  MAN C   3      36.302  11.038  44.002  1.00 62.74    -0.238 OA
ENDBRANCH  41  49
ENDBRANCH  35  37
ENDBRANCH   4  35
TORSDOF 16
ENDMDL
MODEL 20
REMARK VINA RESULT:    -6.847      4.236      7.621
REMARK INTER + INTRA:         -13.348
REMARK INTER:                 -10.719
REMARK INTRA:                  -2.629
REMARK UNBOUND:                -1.498
REMARK  16 active torsions:
REMARK  status: ('A' for Active; 'I' for Inactive)
REMARK    1  A    between atoms: C2_2  and  N2_3 
REMARK       I    between atoms: N2_3  and  C7_12 
REMARK    2  A    between atoms: C3_4  and  O3_5 
REMARK    3  A    between atoms: C4_6  and  O4_7 
REMARK    4  A    between atoms: O4_7  and  C1_19 
REMARK    5  A    between atoms: C5_8  and  C6_10 
REMARK    6  A    between atoms: C6_10  and  O6_11 
REMARK    7  A    between atoms: C2_20  and  N2_21 
REMARK       I    between atoms: N2_21  and  C7_30 
REMARK    8  A    between atoms: C3_22  and  O3_23 
REMARK    9  A    between atoms: C4_24  and  O4_25 
REMARK   10  A    between atoms: O4_25  and  C1_37 
REMARK   11  A    between atoms: C5_26  and  C6_28 
REMARK   12  A    between atoms: C6_28  and  O6_29 
REMARK   13  A    between atoms: C2_38  and  O2_39 
REMARK   14  A    between atoms: C3_40  and  O3_41 
REMARK   15  A    between atoms: C4_42  and  O4_43 
REMARK   16  A    between atoms: C5_44  and  C6_46 
ROOT
HETATM    1  C1  NAG C   2      43.718  16.558  42.464  1.00 45.72     0.178 C 
HETATM    2  C2  NAG C   2      45.223  16.517  42.758  1.00 49.06     0.145 C 
HETATM    3  C3  NAG C   2      46.023  17.066  41.574  1.00 52.65     0.150 C 
HETATM    4  C4  NAG C   2      45.605  16.397  40.271  1.00 54.97     0.057 C 
HETATM    5  C5  NAG C   2      44.092  16.492  40.107  1.00 50.27     0.153 C 
HETATM    6  O5  NAG C   2      43.450  15.887  41.238  1.00 46.44    -0.373 OA
ENDROOT
BRANCH   1   7
HETATM    7  O4  NAG C   1      43.027  15.934  43.564  1.00 39.58     0.000 OA
HETATM    8  HO4 NAG C   1      42.691  16.180  44.348  1.00 47.49     0.000 HD
BRANCH   7   9
HETATM    9  C4  NAG C   1      42.800  14.542  43.365  1.00 34.44     0.057 C 
HETATM   10  C3  NAG C   1      43.626  13.735  44.358  1.00 34.15     0.150 C 
HETATM   11  C2  NAG C   1      43.266  12.244  44.296  1.00 32.59     0.145 C 
HETATM   12  C1  NAG C   1      41.747  12.052  44.402  1.00 28.24     0.178 C 
HETATM   13  O5  NAG C   1      41.090  12.845  43.410  1.00 32.77    -0.373 OA
HETATM   14  C5  NAG C   1      41.321  14.251  43.577  1.00 32.91     0.153 C 
BRANCH  10  15
HETATM   15  O3  NAG C   1      45.012  13.900  44.080  1.00 36.22    -0.393 OA
HETATM   16  HO3 NAG C   1      45.120  14.096  43.221  1.00 43.47     0.210 HD
ENDBRANCH  10  15
BRANCH  11  17
HETATM   17  N2  NAG C   1      43.949  11.516  45.354  1.00 32.25    -0.352 N 
HETATM   18  HN2 NAG C   1      43.569  11.504  46.182  1.00 38.70     0.163 HD
HETATM   19  C7  NAG C   1      45.112  10.875  45.186  1.00 31.56     0.214 C 
HETATM   20  O7  NAG C   1      45.692  10.846  44.104  1.00 31.67    -0.274 OA
HETATM   21  C8  NAG C   1      45.663  10.190  46.401  1.00 31.40     0.117 C 
ENDBRANCH  11  17
BRANCH  14  22
HETATM   22  C6  NAG C   1      40.421  14.968  42.598  1.00 33.57     0.196 C 
BRANCH  22  23
HETATM   23  O6  NAG C   1      40.931  14.901  41.274  1.00 38.40    -0.398 OA
HETATM   24  HO6 NAG C   1      40.503  14.267  40.824  1.00 46.08     0.209 HD
ENDBRANCH  22  23
ENDBRANCH  14  22
ENDBRANCH   7   9
ENDBRANCH   1   7
BRANCH   2  25
HETATM   25  N2  NAG C   2      45.532  17.271  43.964  1.00 46.80    -0.352 N 
HETATM   26  HN2 NAG C   2      45.077  18.047  44.116  1.00 56.16     0.163 HD
HETATM   27  C7  NAG C   2      46.450  16.890  44.859  1.00 45.80     0.214 C 
HETATM   28  O7  NAG C   2      47.105  15.858  44.725  1.00 44.31    -0.274 OA
HETATM   29  C8  NAG C   2      46.631  17.799  46.038  1.00 43.27     0.117 C 
ENDBRANCH   2  25
BRANCH   3  30
HETATM   30  O3  NAG C   2      47.408  16.837  41.807  1.00 54.04    -0.393 OA
HETATM   31  HO3 NAG C   2      47.587  15.973  41.706  1.00 64.84     0.210 HD
ENDBRANCH   3  30
BRANCH   5  32
HETATM   32  C6  NAG C   2      43.580  15.778  38.879  1.00 49.47     0.196 C 
BRANCH  32  33
HETATM   33  O6  NAG C   2      42.669  14.743  39.223  1.00 49.56    -0.398 OA
HETATM   34  HO6 NAG C   2      42.804  14.498  40.065  1.00 59.47     0.209 HD
ENDBRANCH  32  33
ENDBRANCH   5  32
BRANCH   4  35
HETATM   35  O4  NAG C   2      46.230  17.058  39.176  1.00 61.24     0.000 OA
HETATM   36  HO4 NAG C   2      46.149  16.560  38.444  1.00 73.48     0.000 HD
BRANCH  35  37
HETATM   37  C1  MAN C   3      46.765  18.358  39.515  1.00 61.12     0.185 C 
HETATM   38  C2  MAN C   3      46.132  19.354  38.525  1.00 64.56     0.181 C 
HETATM   39  C3  MAN C   3      47.104  19.598  37.383  1.00 65.99     0.180 C 
HETATM   40  C4  MAN C   3      48.338  20.332  37.902  1.00 63.78     0.180 C 
HETATM   41  C5  MAN C   3      48.953  19.577  39.110  1.00 60.29     0.180 C 
HETATM   42  O5  MAN C   3      48.199  18.348  39.476  1.00 59.70    -0.370 OA
BRANCH  38  43
HETATM   43  O2  MAN C   3      45.895  20.628  39.138  1.00 65.84    -0.390 OA
HETATM   44  HO2 MAN C   3      45.231  21.106  38.625  1.00 79.01     0.210 HD
ENDBRANCH  38  43
BRANCH  39  45
HETATM   45  O3  MAN C   3      46.505  20.321  36.306  1.00 68.47    -0.390 OA
HETATM   46  HO3 MAN C   3      46.317  19.656  35.623  1.00 82.16     0.210 HD
ENDBRANCH  39  45
BRANCH  40  47
HETATM   47  O4  MAN C   3      49.311  20.439  36.865  1.00 64.75    -0.390 OA
HETATM   48  HO4 MAN C   3      50.152  20.610  37.319  1.00 77.70     0.210 HD
ENDBRANCH  40  47
BRANCH  41  49
HETATM   49  C6  MAN C   3      49.081  20.452  40.346  1.00 61.73     0.244 C 
HETATM   50  O6  MAN C   3      48.409  21.678  40.068  1.00 62.74    -0.238 OA
ENDBRANCH  41  49
ENDBRANCH  35  37
ENDBRANCH   4  35
TORSDOF 16
ENDMDL
MODEL 21
REMARK VINA RESULT:    -6.843      3.023      9.272
REMARK INTER + INTRA:         -13.341
REMARK INTER:                 -12.204
REMARK INTRA:                  -1.137
REMARK UNBOUND:                -1.498
REMARK  16 active torsions:
REMARK  status: ('A' for Active; 'I' for Inactive)
REMARK    1  A    between atoms: C2_2  and  N2_3 
REMARK       I    between atoms: N2_3  and  C7_12 
REMARK    2  A    between atoms: C3_4  and  O3_5 
REMARK    3  A    between atoms: C4_6  and  O4_7 
REMARK    4  A    between atoms: O4_7  and  C1_19 
REMARK    5  A    between atoms: C5_8  and  C6_10 
REMARK    6  A    between atoms: C6_10  and  O6_11 
REMARK    7  A    between atoms: C2_20  and  N2_21 
REMARK       I    between atoms: N2_21  and  C7_30 
REMARK    8  A    between atoms: C3_22  and  O3_23 
REMARK    9  A    between atoms: C4_24  and  O4_25 
REMARK   10  A    between atoms: O4_25  and  C1_37 
REMARK   11  A    between atoms: C5_26  and  C6_28 
REMARK   12  A    between atoms: C6_28  and  O6_29 
REMARK   13  A    between atoms: C2_38  and  O2_39 
REMARK   14  A    between atoms: C3_40  and  O3_41 
REMARK   15  A    between atoms: C4_42  and  O4_43 
REMARK   16  A    between atoms: C5_44  and  C6_46 
ROOT
HETATM    1  C1  NAG C   2      43.544  15.646  42.295  1.00 45.72     0.178 C 
HETATM    2  C2  NAG C   2      42.839  15.494  43.648  1.00 49.06     0.145 C 
HETATM    3  C3  NAG C   2      42.163  14.125  43.759  1.00 52.65     0.150 C 
HETATM    4  C4  NAG C   2      41.290  13.843  42.543  1.00 54.97     0.057 C 
HETATM    5  C5  NAG C   2      42.102  14.045  41.269  1.00 50.27     0.153 C 
HETATM    6  O5  NAG C   2      42.626  15.380  41.242  1.00 46.44    -0.373 OA
ENDROOT
BRANCH   1   7
HETATM    7  O4  NAG C   1      44.067  16.987  42.208  1.00 39.58     0.000 OA
HETATM    8  HO4 NAG C   1      43.802  17.807  42.423  1.00 47.49     0.000 HD
BRANCH   7   9
HETATM    9  C4  NAG C   1      45.366  17.044  41.627  1.00 34.44     0.057 C 
HETATM   10  C3  NAG C   1      45.261  17.432  40.158  1.00 34.15     0.150 C 
HETATM   11  C2  NAG C   1      46.648  17.684  39.550  1.00 32.59     0.145 C 
HETATM   12  C1  NAG C   1      47.452  18.655  40.426  1.00 28.24     0.178 C 
HETATM   13  O5  NAG C   1      47.491  18.171  41.772  1.00 32.77    -0.373 OA
HETATM   14  C5  NAG C   1      46.191  18.085  42.372  1.00 32.91     0.153 C 
BRANCH  10  15
HETATM   15  O3  NAG C   1      44.605  16.398  39.431  1.00 36.22    -0.393 OA
HETATM   16  HO3 NAG C   1      43.916  16.739  38.989  1.00 43.47     0.210 HD
ENDBRANCH  10  15
BRANCH  11  17
HETATM   17  N2  NAG C   1      46.519  18.201  38.197  1.00 32.25    -0.352 N 
HETATM   18  HN2 NAG C   1      46.683  17.634  37.503  1.00 38.70     0.163 HD
HETATM   19  C7  NAG C   1      46.187  19.467  37.912  1.00 31.56     0.214 C 
HETATM   20  O7  NAG C   1      45.955  20.294  38.789  1.00 31.67    -0.274 OA
HETATM   21  C8  NAG C   1      46.114  19.811  36.454  1.00 31.40     0.117 C 
ENDBRANCH  11  17
BRANCH  14  22
HETATM   22  C6  NAG C   1      46.397  17.757  43.832  1.00 33.57     0.196 C 
BRANCH  22  23
HETATM   23  O6  NAG C   1      45.327  18.243  44.631  1.00 38.40    -0.398 OA
HETATM   24  HO6 NAG C   1      44.600  18.330  44.130  1.00 46.08     0.209 HD
ENDBRANCH  22  23
ENDBRANCH  14  22
ENDBRANCH   7   9
ENDBRANCH   1   7
BRANCH   2  25
HETATM   25  N2  NAG C   2      43.779  15.679  44.743  1.00 46.80    -0.352 N 
HETATM   26  HN2 NAG C   2      43.807  16.492  45.155  1.00 56.16     0.163 HD
HETATM   27  C7  NAG C   2      44.609  14.723  45.175  1.00 45.80     0.214 C 
HETATM   28  O7  NAG C   2      44.633  13.601  44.671  1.00 44.31    -0.274 OA
HETATM   29  C8  NAG C   2      45.508  15.102  46.313  1.00 43.27     0.117 C 
ENDBRANCH   2  25
BRANCH   3  30
HETATM   30  O3  NAG C   2      41.368  14.096  44.938  1.00 54.04    -0.393 OA
HETATM   31  HO3 NAG C   2      41.498  13.328  45.364  1.00 64.84     0.210 HD
ENDBRANCH   3  30
BRANCH   5  32
HETATM   32  C6  NAG C   2      41.288  13.869  40.009  1.00 49.47     0.196 C 
BRANCH  32  33
HETATM   33  O6  NAG C   2      41.208  12.502  39.630  1.00 49.56    -0.398 OA
HETATM   34  HO6 NAG C   2      40.492  12.132  40.003  1.00 59.47     0.209 HD
ENDBRANCH  32  33
ENDBRANCH   5  32
BRANCH   4  35
HETATM   35  O4  NAG C   2      40.831  12.497  42.589  1.00 61.24     0.000 OA
HETATM   36  HO4 NAG C   2      41.500  11.963  42.826  1.00 73.48     0.000 HD
BRANCH  35  37
HETATM   37  C1  MAN C   3      39.419  12.358  42.304  1.00 61.12     0.185 C 
HETATM   38  C2  MAN C   3      38.783  13.725  42.616  1.00 64.56     0.181 C 
HETATM   39  C3  MAN C   3      38.185  13.683  44.012  1.00 65.99     0.180 C 
HETATM   40  C4  MAN C   3      37.005  12.714  44.040  1.00 63.78     0.180 C 
HETATM   41  C5  MAN C   3      37.425  11.327  43.487  1.00 60.29     0.180 C 
HETATM   42  O5  MAN C   3      38.849  11.278  43.054  1.00 59.70    -0.370 OA
BRANCH  38  43
HETATM   43  O2  MAN C   3      37.703  14.021  41.720  1.00 65.84    -0.390 OA
HETATM   44  HO2 MAN C   3      36.870  13.762  42.133  1.00 79.01     0.210 HD
ENDBRANCH  38  43
BRANCH  39  45
HETATM   45  O3  MAN C   3      37.785  14.976  44.471  1.00 68.47    -0.390 OA
HETATM   46  HO3 MAN C   3      38.228  15.606  43.879  1.00 82.16     0.210 HD
ENDBRANCH  39  45
BRANCH  40  47
HETATM   47  O4  MAN C   3      36.531  12.566  45.377  1.00 64.75    -0.390 OA
HETATM   48  HO4 MAN C   3      35.786  11.947  45.318  1.00 77.70     0.210 HD
ENDBRANCH  40  47
BRANCH  41  49
HETATM   49  C6  MAN C   3      36.553  10.868  42.330  1.00 61.73     0.244 C 
HETATM   50  O6  MAN C   3      35.518  11.835  42.170  1.00 62.74    -0.238 OA
ENDBRANCH  41  49
ENDBRANCH  35  37
ENDBRANCH   4  35
TORSDOF 16
ENDMDL
MODEL 22
REMARK VINA RESULT:    -6.651      3.308      8.770
REMARK INTER + INTRA:         -13.008
REMARK INTER:                 -10.057
REMARK INTRA:                  -2.951
REMARK UNBOUND:                -1.498
REMARK  16 active torsions:
REMARK  status: ('A' for Active; 'I' for Inactive)
REMARK    1  A    between atoms: C2_2  and  N2_3 
REMARK       I    between atoms: N2_3  and  C7_12 
REMARK    2  A    between atoms: C3_4  and  O3_5 
REMARK    3  A    between atoms: C4_6  and  O4_7 
REMARK    4  A    between atoms: O4_7  and  C1_19 
REMARK    5  A    between atoms: C5_8  and  C6_10 
REMARK    6  A    between atoms: C6_10  and  O6_11 
REMARK    7  A    between atoms: C2_20  and  N2_21 
REMARK       I    between atoms: N2_21  and  C7_30 
REMARK    8  A    between atoms: C3_22  and  O3_23 
REMARK    9  A    between atoms: C4_24  and  O4_25 
REMARK   10  A    between atoms: O4_25  and  C1_37 
REMARK   11  A    between atoms: C5_26  and  C6_28 
REMARK   12  A    between atoms: C6_28  and  O6_29 
REMARK   13  A    between atoms: C2_38  and  O2_39 
REMARK   14  A    between atoms: C3_40  and  O3_41 
REMARK   15  A    between atoms: C4_42  and  O4_43 
REMARK   16  A    between atoms: C5_44  and  C6_46 
ROOT
HETATM    1  C1  NAG C   2      43.437  15.350  42.696  1.00 45.72     0.178 C 
HETATM    2  C2  NAG C   2      43.113  14.635  41.378  1.00 49.06     0.145 C 
HETATM    3  C3  NAG C   2      41.971  13.635  41.570  1.00 52.65     0.150 C 
HETATM    4  C4  NAG C   2      42.240  12.712  42.752  1.00 54.97     0.057 C 
HETATM    5  C5  NAG C   2      42.564  13.544  43.988  1.00 50.27     0.153 C 
HETATM    6  O5  NAG C   2      43.690  14.390  43.714  1.00 46.44    -0.373 OA
ENDROOT
BRANCH   1   7
HETATM    7  O4  NAG C   1      44.584  16.197  42.478  1.00 39.58     0.000 OA
HETATM    8  HO4 NAG C   1      45.118  16.413  41.802  1.00 47.49     0.000 HD
BRANCH   7   9
HETATM    9  C4  NAG C   1      44.993  16.897  43.649  1.00 34.44     0.057 C 
HETATM   10  C3  NAG C   1      46.360  16.400  44.100  1.00 34.15     0.150 C 
HETATM   11  C2  NAG C   1      46.912  17.259  45.246  1.00 32.59     0.145 C 
HETATM   12  C1  NAG C   1      46.846  18.749  44.884  1.00 28.24     0.178 C 
HETATM   13  O5  NAG C   1      45.512  19.092  44.497  1.00 32.77    -0.373 OA
HETATM   14  C5  NAG C   1      45.070  18.384  43.331  1.00 32.91     0.153 C 
BRANCH  10  15
HETATM   15  O3  NAG C   1      46.265  15.045  44.526  1.00 36.22    -0.393 OA
HETATM   16  HO3 NAG C   1      45.795  14.581  43.934  1.00 43.47     0.210 HD
ENDBRANCH  10  15
BRANCH  11  17
HETATM   17  N2  NAG C   1      48.278  16.868  45.556  1.00 32.25    -0.352 N 
HETATM   18  HN2 NAG C   1      48.950  17.208  45.042  1.00 38.70     0.163 HD
HETATM   19  C7  NAG C   1      48.606  16.024  46.543  1.00 31.56     0.214 C 
HETATM   20  O7  NAG C   1      47.761  15.518  47.277  1.00 31.67    -0.274 OA
HETATM   21  C8  NAG C   1      50.069  15.737  46.699  1.00 31.40     0.117 C 
ENDBRANCH  11  17
BRANCH  14  22
HETATM   22  C6  NAG C   1      43.743  18.981  42.924  1.00 33.57     0.196 C 
BRANCH  22  23
HETATM   23  O6  NAG C   1      43.410  18.648  41.584  1.00 38.40    -0.398 OA
HETATM   24  HO6 NAG C   1      42.704  19.122  41.328  1.00 46.08     0.209 HD
ENDBRANCH  22  23
ENDBRANCH  14  22
ENDBRANCH   7   9
ENDBRANCH   1   7
BRANCH   2  25
HETATM   25  N2  NAG C   2      42.768  15.597  40.342  1.00 46.80    -0.352 N 
HETATM   26  HN2 NAG C   2      41.912  15.913  40.315  1.00 56.16     0.163 HD
HETATM   27  C7  NAG C   2      43.635  16.039  39.424  1.00 45.80     0.214 C 
HETATM   28  O7  NAG C   2      44.804  15.660  39.394  1.00 44.31    -0.274 OA
HETATM   29  C8  NAG C   2      43.093  17.027  38.435  1.00 43.27     0.117 C 
ENDBRANCH   2  25
BRANCH   3  30
HETATM   30  O3  NAG C   2      41.829  12.863  40.383  1.00 54.04    -0.393 OA
HETATM   31  HO3 NAG C   2      42.123  13.331  39.688  1.00 64.84     0.210 HD
ENDBRANCH   3  30
BRANCH   5  32
HETATM   32  C6  NAG C   2      42.929  12.706  45.191  1.00 49.47     0.196 C 
BRANCH  32  33
HETATM   33  O6  NAG C   2      44.274  12.931  45.591  1.00 49.56    -0.398 OA
HETATM   34  HO6 NAG C   2      44.347  13.743  45.942  1.00 59.47     0.209 HD
ENDBRANCH  32  33
ENDBRANCH   5  32
BRANCH   4  35
HETATM   35  O4  NAG C   2      41.084  11.926  43.016  1.00 61.24     0.000 OA
HETATM   36  HO4 NAG C   2      41.329  11.099  43.226  1.00 73.48     0.000 HD
BRANCH  35  37
HETATM   37  C1  MAN C   3      39.847  12.672  42.932  1.00 61.12     0.185 C 
HETATM   38  C2  MAN C   3      39.140  12.481  44.287  1.00 64.56     0.181 C 
HETATM   39  C3  MAN C   3      38.113  11.369  44.154  1.00 65.99     0.180 C 
HETATM   40  C4  MAN C   3      36.993  11.808  43.215  1.00 63.78     0.180 C 
HETATM   41  C5  MAN C   3      37.576  12.300  41.864  1.00 60.29     0.180 C 
HETATM   42  O5  MAN C   3      39.062  12.240  41.813  1.00 59.70    -0.370 OA
BRANCH  38  43
HETATM   43  O2  MAN C   3      38.418  13.657  44.676  1.00 65.84    -0.390 OA
HETATM   44  HO2 MAN C   3      38.975  14.431  44.529  1.00 79.01     0.210 HD
ENDBRANCH  38  43
BRANCH  39  45
HETATM   45  O3  MAN C   3      37.581  10.967  45.418  1.00 68.47    -0.390 OA
HETATM   46  HO3 MAN C   3      36.621  11.096  45.344  1.00 82.16     0.210 HD
ENDBRANCH  39  45
BRANCH  40  47
HETATM   47  O4  MAN C   3      36.102  10.719  42.978  1.00 64.75    -0.390 OA
HETATM   48  HO4 MAN C   3      36.387  10.335  42.134  1.00 77.70     0.210 HD
ENDBRANCH  40  47
BRANCH  41  49
HETATM   49  C6  MAN C   3      37.137  13.712  41.514  1.00 61.73     0.244 C 
HETATM   50  O6  MAN C   3      36.302  14.171  42.574  1.00 62.74    -0.238 OA
ENDBRANCH  41  49
ENDBRANCH  35  37
ENDBRANCH   4  35
TORSDOF 16
ENDMDL
MODEL 23
REMARK VINA RESULT:    -6.646      4.101      9.133
REMARK INTER + INTRA:         -13.001
REMARK INTER:                 -10.679
REMARK INTRA:                  -2.322
REMARK UNBOUND:                -1.498
REMARK  16 active torsions:
REMARK  status: ('A' for Active; 'I' for Inactive)
REMARK    1  A    between atoms: C2_2  and  N2_3 
REMARK       I    between atoms: N2_3  and  C7_12 
REMARK    2  A    between atoms: C3_4  and  O3_5 
REMARK    3  A    between atoms: C4_6  and  O4_7 
REMARK    4  A    between atoms: O4_7  and  C1_19 
REMARK    5  A    between atoms: C5_8  and  C6_10 
REMARK    6  A    between atoms: C6_10  and  O6_11 
REMARK    7  A    between atoms: C2_20  and  N2_21 
REMARK       I    between atoms: N2_21  and  C7_30 
REMARK    8  A    between atoms: C3_22  and  O3_23 
REMARK    9  A    between atoms: C4_24  and  O4_25 
REMARK   10  A    between atoms: O4_25  and  C1_37 
REMARK   11  A    between atoms: C5_26  and  C6_28 
REMARK   12  A    between atoms: C6_28  and  O6_29 
REMARK   13  A    between atoms: C2_38  and  O2_39 
REMARK   14  A    between atoms: C3_40  and  O3_41 
REMARK   15  A    between atoms: C4_42  and  O4_43 
REMARK   16  A    between atoms: C5_44  and  C6_46 
ROOT
HETATM    1  C1  NAG C   2      44.499  14.924  44.424  1.00 45.72     0.178 C 
HETATM    2  C2  NAG C   2      43.939  15.434  43.090  1.00 49.06     0.145 C 
HETATM    3  C3  NAG C   2      42.409  15.425  43.104  1.00 52.65     0.150 C 
HETATM    4  C4  NAG C   2      41.871  14.072  43.552  1.00 54.97     0.057 C 
HETATM    5  C5  NAG C   2      42.516  13.675  44.875  1.00 50.27     0.153 C 
HETATM    6  O5  NAG C   2      43.942  13.650  44.723  1.00 46.44    -0.373 OA
ENDROOT
BRANCH   1   7
HETATM    7  O4  NAG C   1      45.935  14.855  44.312  1.00 39.58     0.000 OA
HETATM    8  HO4 NAG C   1      46.533  14.667  43.683  1.00 47.49     0.000 HD
BRANCH   7   9
HETATM    9  C4  NAG C   1      46.606  15.178  45.526  1.00 34.44     0.057 C 
HETATM   10  C3  NAG C   1      47.097  13.904  46.202  1.00 34.15     0.150 C 
HETATM   11  C2  NAG C   1      47.984  14.225  47.413  1.00 32.59     0.145 C 
HETATM   12  C1  NAG C   1      49.083  15.224  47.027  1.00 28.24     0.178 C 
HETATM   13  O5  NAG C   1      48.494  16.379  46.421  1.00 32.77    -0.373 OA
HETATM   14  C5  NAG C   1      47.794  16.076  45.207  1.00 32.91     0.153 C 
BRANCH  10  15
HETATM   15  O3  NAG C   1      45.985  13.121  46.622  1.00 36.22    -0.393 OA
HETATM   16  HO3 NAG C   1      45.318  13.221  46.046  1.00 43.47     0.210 HD
ENDBRANCH  10  15
BRANCH  11  17
HETATM   17  N2  NAG C   1      48.566  13.005  47.949  1.00 32.25    -0.352 N 
HETATM   18  HN2 NAG C   1      49.331  12.690  47.565  1.00 38.70     0.163 HD
HETATM   19  C7  NAG C   1      48.037  12.309  48.962  1.00 31.56     0.214 C 
HETATM   20  O7  NAG C   1      47.008  12.663  49.530  1.00 31.67    -0.274 OA
HETATM   21  C8  NAG C   1      48.781  11.071  49.365  1.00 31.40     0.117 C 
ENDBRANCH  11  17
BRANCH  14  22
HETATM   22  C6  NAG C   1      47.400  17.393  44.580  1.00 33.57     0.196 C 
BRANCH  22  23
HETATM   23  O6  NAG C   1      46.175  17.877  45.111  1.00 38.40    -0.398 OA
HETATM   24  HO6 NAG C   1      46.092  17.613  45.954  1.00 46.08     0.209 HD
ENDBRANCH  22  23
ENDBRANCH  14  22
ENDBRANCH   7   9
ENDBRANCH   1   7
BRANCH   2  25
HETATM   25  N2  NAG C   2      44.429  16.774  42.804  1.00 46.80    -0.352 N 
HETATM   26  HN2 NAG C   2      44.476  17.372  43.492  1.00 56.16     0.163 HD
HETATM   27  C7  NAG C   2      44.810  17.178  41.587  1.00 45.80     0.214 C 
HETATM   28  O7  NAG C   2      44.776  16.433  40.610  1.00 44.31    -0.274 OA
HETATM   29  C8  NAG C   2      45.285  18.598  41.488  1.00 43.27     0.117 C 
ENDBRANCH   2  25
BRANCH   3  30
HETATM   30  O3  NAG C   2      41.933  15.721  41.796  1.00 54.04    -0.393 OA
HETATM   31  HO3 NAG C   2      41.322  16.364  41.842  1.00 64.84     0.210 HD
ENDBRANCH   3  30
BRANCH   5  32
HETATM   32  C6  NAG C   2      42.103  12.303  45.352  1.00 49.47     0.196 C 
BRANCH  32  33
HETATM   33  O6  NAG C   2      42.517  11.291  44.444  1.00 49.56    -0.398 OA
HETATM   34  HO6 NAG C   2      43.317  10.990  44.681  1.00 59.47     0.209 HD
ENDBRANCH  32  33
ENDBRANCH   5  32
BRANCH   4  35
HETATM   35  O4  NAG C   2      40.462  14.156  43.733  1.00 61.24     0.000 OA
HETATM   36  HO4 NAG C   2      40.256  14.940  44.097  1.00 73.48     0.000 HD
BRANCH  35  37
HETATM   37  C1  MAN C   3      39.745  13.002  43.236  1.00 61.12     0.185 C 
HETATM   38  C2  MAN C   3      39.117  13.431  41.897  1.00 64.56     0.181 C 
HETATM   39  C3  MAN C   3      37.672  13.834  42.137  1.00 65.99     0.180 C 
HETATM   40  C4  MAN C   3      36.856  12.611  42.550  1.00 63.78     0.180 C 
HETATM   41  C5  MAN C   3      37.523  11.890  43.750  1.00 60.29     0.180 C 
HETATM   42  O5  MAN C   3      38.784  12.543  44.197  1.00 59.70    -0.370 OA
BRANCH  38  43
HETATM   43  O2  MAN C   3      39.088  12.349  40.957  1.00 65.84    -0.390 OA
HETATM   44  HO2 MAN C   3      38.723  12.667  40.122  1.00 79.01     0.210 HD
ENDBRANCH  38  43
BRANCH  39  45
HETATM   45  O3  MAN C   3      37.088  14.467  40.997  1.00 68.47    -0.390 OA
HETATM   46  HO3 MAN C   3      37.777  15.060  40.653  1.00 82.16     0.210 HD
ENDBRANCH  39  45
BRANCH  40  47
HETATM   47  O4  MAN C   3      35.535  13.008  42.910  1.00 64.75    -0.390 OA
HETATM   48  HO4 MAN C   3      35.419  13.891  42.525  1.00 77.70     0.210 HD
ENDBRANCH  40  47
BRANCH  41  49
HETATM   49  C6  MAN C   3      37.811  10.425  43.469  1.00 61.73     0.244 C 
HETATM   50  O6  MAN C   3      36.556   9.761  43.352  1.00 62.74    -0.238 OA
ENDBRANCH  41  49
ENDBRANCH  35  37
ENDBRANCH   4  35
TORSDOF 16
ENDMDL
MODEL 24
REMARK VINA RESULT:    -6.628      2.492      3.453
REMARK INTER + INTRA:         -12.970
REMARK INTER:                  -9.777
REMARK INTRA:                  -3.193
REMARK UNBOUND:                -1.498
REMARK  16 active torsions:
REMARK  status: ('A' for Active; 'I' for Inactive)
REMARK    1  A    between atoms: C2_2  and  N2_3 
REMARK       I    between atoms: N2_3  and  C7_12 
REMARK    2  A    between atoms: C3_4  and  O3_5 
REMARK    3  A    between atoms: C4_6  and  O4_7 
REMARK    4  A    between atoms: O4_7  and  C1_19 
REMARK    5  A    between atoms: C5_8  and  C6_10 
REMARK    6  A    between atoms: C6_10  and  O6_11 
REMARK    7  A    between atoms: C2_20  and  N2_21 
REMARK       I    between atoms: N2_21  and  C7_30 
REMARK    8  A    between atoms: C3_22  and  O3_23 
REMARK    9  A    between atoms: C4_24  and  O4_25 
REMARK   10  A    between atoms: O4_25  and  C1_37 
REMARK   11  A    between atoms: C5_26  and  C6_28 
REMARK   12  A    between atoms: C6_28  and  O6_29 
REMARK   13  A    between atoms: C2_38  and  O2_39 
REMARK   14  A    between atoms: C3_40  and  O3_41 
REMARK   15  A    between atoms: C4_42  and  O4_43 
REMARK   16  A    between atoms: C5_44  and  C6_46 
ROOT
HETATM    1  C1  NAG C   2      41.320  12.402  44.002  1.00 45.72     0.178 C 
HETATM    2  C2  NAG C   2      40.564  13.579  43.375  1.00 49.06     0.145 C 
HETATM    3  C3  NAG C   2      41.530  14.525  42.657  1.00 52.65     0.150 C 
HETATM    4  C4  NAG C   2      42.691  14.916  43.562  1.00 54.97     0.057 C 
HETATM    5  C5  NAG C   2      43.343  13.661  44.131  1.00 50.27     0.153 C 
HETATM    6  O5  NAG C   2      42.362  12.891  44.838  1.00 46.44    -0.373 OA
ENDROOT
BRANCH   1   7
HETATM    7  O4  NAG C   1      40.377  11.608  44.750  1.00 39.58     0.000 OA
HETATM    8  HO4 NAG C   1      39.742  11.012  44.576  1.00 47.49     0.000 HD
BRANCH   7   9
HETATM    9  C4  NAG C   1      40.470  11.808  46.157  1.00 34.44     0.057 C 
HETATM   10  C3  NAG C   1      39.202  12.479  46.670  1.00 34.15     0.150 C 
HETATM   11  C2  NAG C   1      39.189  12.541  48.204  1.00 32.59     0.145 C 
HETATM   12  C1  NAG C   1      39.483  11.159  48.801  1.00 28.24     0.178 C 
HETATM   13  O5  NAG C   1      40.702  10.647  48.256  1.00 32.77    -0.373 OA
HETATM   14  C5  NAG C   1      40.641  10.456  46.835  1.00 32.91     0.153 C 
BRANCH  10  15
HETATM   15  O3  NAG C   1      39.106  13.797  46.141  1.00 36.22    -0.393 OA
HETATM   16  HO3 NAG C   1      39.603  14.349  46.627  1.00 43.47     0.210 HD
ENDBRANCH  10  15
BRANCH  11  17
HETATM   17  N2  NAG C   1      37.908  13.042  48.676  1.00 32.25    -0.352 N 
HETATM   18  HN2 NAG C   1      37.216  12.451  48.750  1.00 38.70     0.163 HD
HETATM   19  C7  NAG C   1      37.680  14.321  48.996  1.00 31.56     0.214 C 
HETATM   20  O7  NAG C   1      38.555  15.179  48.921  1.00 31.67    -0.274 OA
HETATM   21  C8  NAG C   1      36.289  14.643  49.456  1.00 31.40     0.117 C 
ENDBRANCH  11  17
BRANCH  14  22
HETATM   22  C6  NAG C   1      41.905   9.735  46.429  1.00 33.57     0.196 C 
BRANCH  22  23
HETATM   23  O6  NAG C   1      43.015  10.619  46.376  1.00 38.40    -0.398 OA
HETATM   24  HO6 NAG C   1      43.464  10.577  47.141  1.00 46.08     0.209 HD
ENDBRANCH  22  23
ENDBRANCH  14  22
ENDBRANCH   7   9
ENDBRANCH   1   7
BRANCH   2  25
HETATM   25  N2  NAG C   2      39.547  13.103  42.449  1.00 46.80    -0.352 N 
HETATM   26  HN2 NAG C   2      39.807  12.550  41.771  1.00 56.16     0.163 HD
HETATM   27  C7  NAG C   2      38.255  13.436  42.534  1.00 45.80     0.214 C 
HETATM   28  O7  NAG C   2      37.827  14.176  43.418  1.00 44.31    -0.274 OA
HETATM   29  C8  NAG C   2      37.357  12.849  41.486  1.00 43.27     0.117 C 
ENDBRANCH   2  25
BRANCH   3  30
HETATM   30  O3  NAG C   2      40.821  15.692  42.255  1.00 54.04    -0.393 OA
HETATM   31  HO3 NAG C   2      41.243  16.075  41.574  1.00 64.84     0.210 HD
ENDBRANCH   3  30
BRANCH   5  32
HETATM   32  C6  NAG C   2      44.455  13.959  45.110  1.00 49.47     0.196 C 
BRANCH  32  33
HETATM   33  O6  NAG C   2      44.152  15.094  45.909  1.00 49.56    -0.398 OA
HETATM   34  HO6 NAG C   2      43.427  15.495  45.590  1.00 59.47     0.209 HD
ENDBRANCH  32  33
ENDBRANCH   5  32
BRANCH   4  35
HETATM   35  O4  NAG C   2      43.659  15.638  42.808  1.00 61.24     0.000 OA
HETATM   36  HO4 NAG C   2      44.059  15.089  42.235  1.00 73.48     0.000 HD
BRANCH  35  37
HETATM   37  C1  MAN C   3      43.698  17.050  43.120  1.00 61.12     0.185 C 
HETATM   38  C2  MAN C   3      43.933  17.777  41.783  1.00 64.56     0.181 C 
HETATM   39  C3  MAN C   3      45.413  18.086  41.644  1.00 65.99     0.180 C 
HETATM   40  C4  MAN C   3      45.829  19.112  42.697  1.00 63.78     0.180 C 
HETATM   41  C5  MAN C   3      45.408  18.639  44.113  1.00 60.29     0.180 C 
HETATM   42  O5  MAN C   3      44.701  17.329  44.106  1.00 59.70    -0.370 OA
BRANCH  38  43
HETATM   43  O2  MAN C   3      43.248  19.036  41.740  1.00 65.84    -0.390 OA
HETATM   44  HO2 MAN C   3      43.231  19.416  42.627  1.00 79.01     0.210 HD
ENDBRANCH  38  43
BRANCH  39  45
HETATM   45  O3  MAN C   3      45.751  18.546  40.334  1.00 68.47    -0.390 OA
HETATM   46  HO3 MAN C   3      46.311  19.329  40.474  1.00 82.16     0.210 HD
ENDBRANCH  39  45
BRANCH  40  47
HETATM   47  O4  MAN C   3      47.242  19.299  42.661  1.00 64.75    -0.390 OA
HETATM   48  HO4 MAN C   3      47.492  19.180  41.731  1.00 77.70     0.210 HD
ENDBRANCH  40  47
BRANCH  41  49
HETATM   49  C6  MAN C   3      44.539  19.654  44.837  1.00 61.73     0.244 C 
HETATM   50  O6  MAN C   3      44.077  20.586  43.863  1.00 62.74    -0.238 OA
ENDBRANCH  41  49
ENDBRANCH  35  37
ENDBRANCH   4  35
TORSDOF 16
ENDMDL
MODEL 25
REMARK VINA RESULT:    -6.627     12.042     16.356
REMARK INTER + INTRA:         -12.966
REMARK INTER:                 -10.255
REMARK INTRA:                  -2.711
REMARK UNBOUND:                -1.498
REMARK  16 active torsions:
REMARK  status: ('A' for Active; 'I' for Inactive)
REMARK    1  A    between atoms: C2_2  and  N2_3 
REMARK       I    between atoms: N2_3  and  C7_12 
REMARK    2  A    between atoms: C3_4  and  O3_5 
REMARK    3  A    between atoms: C4_6  and  O4_7 
REMARK    4  A    between atoms: O4_7  and  C1_19 
REMARK    5  A    between atoms: C5_8  and  C6_10 
REMARK    6  A    between atoms: C6_10  and  O6_11 
REMARK    7  A    between atoms: C2_20  and  N2_21 
REMARK       I    between atoms: N2_21  and  C7_30 
REMARK    8  A    between atoms: C3_22  and  O3_23 
REMARK    9  A    between atoms: C4_24  and  O4_25 
REMARK   10  A    between atoms: O4_25  and  C1_37 
REMARK   11  A    between atoms: C5_26  and  C6_28 
REMARK   12  A    between atoms: C6_28  and  O6_29 
REMARK   13  A    between atoms: C2_38  and  O2_39 
REMARK   14  A    between atoms: C3_40  and  O3_41 
REMARK   15  A    between atoms: C4_42  and  O4_43 
REMARK   16  A    between atoms: C5_44  and  C6_46 
ROOT
HETATM    1  C1  NAG C   2      26.058   6.321  46.593  1.00 45.72     0.178 C 
HETATM    2  C2  NAG C   2      26.448   7.767  46.925  1.00 49.06     0.145 C 
HETATM    3  C3  NAG C   2      27.964   7.897  47.090  1.00 52.65     0.150 C 
HETATM    4  C4  NAG C   2      28.505   6.847  48.052  1.00 54.97     0.057 C 
HETATM    5  C5  NAG C   2      28.034   5.463  47.621  1.00 50.27     0.153 C 
HETATM    6  O5  NAG C   2      26.601   5.441  47.569  1.00 46.44    -0.373 OA
ENDROOT
BRANCH   1   7
HETATM    7  O4  NAG C   1      24.619   6.240  46.556  1.00 39.58     0.000 OA
HETATM    8  HO4 NAG C   1      23.934   6.573  47.012  1.00 47.49     0.000 HD
BRANCH   7   9
HETATM    9  C4  NAG C   1      24.133   5.410  45.506  1.00 34.44     0.057 C 
HETATM   10  C3  NAG C   1      24.695   5.881  44.170  1.00 34.15     0.150 C 
HETATM   11  C2  NAG C   1      24.340   4.901  43.043  1.00 32.59     0.145 C 
HETATM   12  C1  NAG C   1      24.715   3.466  43.439  1.00 28.24     0.178 C 
HETATM   13  O5  NAG C   1      24.114   3.141  44.697  1.00 32.77    -0.373 OA
HETATM   14  C5  NAG C   1      24.573   3.977  45.767  1.00 32.91     0.153 C 
BRANCH  10  15
HETATM   15  O3  NAG C   1      24.179   7.170  43.857  1.00 36.22    -0.393 OA
HETATM   16  HO3 NAG C   1      24.600   7.784  44.340  1.00 43.47     0.210 HD
ENDBRANCH  10  15
BRANCH  11  17
HETATM   17  N2  NAG C   1      25.014   5.284  41.812  1.00 32.25    -0.352 N 
HETATM   18  HN2 NAG C   1      25.795   5.749  41.877  1.00 38.70     0.163 HD
HETATM   19  C7  NAG C   1      24.545   5.007  40.589  1.00 31.56     0.214 C 
HETATM   20  O7  NAG C   1      23.499   4.389  40.416  1.00 31.67    -0.274 OA
HETATM   21  C8  NAG C   1      25.380   5.495  39.443  1.00 31.40     0.117 C 
ENDBRANCH  11  17
BRANCH  14  22
HETATM   22  C6  NAG C   1      24.018   3.402  47.050  1.00 33.57     0.196 C 
BRANCH  22  23
HETATM   23  O6  NAG C   1      25.052   2.909  47.890  1.00 38.40    -0.398 OA
HETATM   24  HO6 NAG C   1      25.629   3.561  48.063  1.00 46.08     0.209 HD
ENDBRANCH  22  23
ENDBRANCH  14  22
ENDBRANCH   7   9
ENDBRANCH   1   7
BRANCH   2  25
HETATM   25  N2  NAG C   2      25.976   8.678  45.894  1.00 46.80    -0.352 N 
HETATM   26  HN2 NAG C   2      26.284   8.563  45.043  1.00 56.16     0.163 HD
HETATM   27  C7  NAG C   2      25.118   9.678  46.126  1.00 45.80     0.214 C 
HETATM   28  O7  NAG C   2      24.658   9.898  47.245  1.00 44.31    -0.274 OA
HETATM   29  C8  NAG C   2      24.750  10.513  44.936  1.00 43.27     0.117 C 
ENDBRANCH   2  25
BRANCH   3  30
HETATM   30  O3  NAG C   2      28.266   9.198  47.580  1.00 54.04    -0.393 OA
HETATM   31  HO3 NAG C   2      28.075   9.239  48.446  1.00 64.84     0.210 HD
ENDBRANCH   3  30
BRANCH   5  32
HETATM   32  C6  NAG C   2      28.455   4.367  48.571  1.00 49.47     0.196 C 
BRANCH  32  33
HETATM   33  O6  NAG C   2      28.357   4.788  49.925  1.00 49.56    -0.398 OA
HETATM   34  HO6 NAG C   2      29.168   4.824  50.284  1.00 59.47     0.209 HD
ENDBRANCH  32  33
ENDBRANCH   5  32
BRANCH   4  35
HETATM   35  O4  NAG C   2      29.928   6.876  48.037  1.00 61.24     0.000 OA
HETATM   36  HO4 NAG C   2      30.219   6.728  47.210  1.00 73.48     0.000 HD
BRANCH  35  37
HETATM   37  C1  MAN C   3      30.514   7.190  49.322  1.00 61.12     0.185 C 
HETATM   38  C2  MAN C   3      31.463   8.378  49.081  1.00 64.56     0.181 C 
HETATM   39  C3  MAN C   3      32.879   7.851  48.916  1.00 65.99     0.180 C 
HETATM   40  C4  MAN C   3      33.366   7.253  50.234  1.00 63.78     0.180 C 
HETATM   41  C5  MAN C   3      32.354   6.203  50.763  1.00 60.29     0.180 C 
HETATM   42  O5  MAN C   3      31.165   6.042  49.881  1.00 59.70    -0.370 OA
BRANCH  38  43
HETATM   43  O2  MAN C   3      31.489   9.268  50.205  1.00 65.84    -0.390 OA
HETATM   44  HO2 MAN C   3      30.733   9.080  50.774  1.00 79.01     0.210 HD
ENDBRANCH  38  43
BRANCH  39  45
HETATM   45  O3  MAN C   3      33.782   8.858  48.456  1.00 68.47    -0.390 OA
HETATM   46  HO3 MAN C   3      34.670   8.518  48.660  1.00 82.16     0.210 HD
ENDBRANCH  39  45
BRANCH  40  47
HETATM   47  O4  MAN C   3      34.637   6.634  50.046  1.00 64.75    -0.390 OA
HETATM   48  HO4 MAN C   3      34.463   5.680  50.067  1.00 77.70     0.210 HD
ENDBRANCH  40  47
BRANCH  41  49
HETATM   49  C6  MAN C   3      31.874   6.508  52.172  1.00 61.73     0.244 C 
HETATM   50  O6  MAN C   3      32.378   7.794  52.522  1.00 62.74    -0.238 OA
ENDBRANCH  41  49
ENDBRANCH  35  37
ENDBRANCH   4  35
TORSDOF 16
ENDMDL
MODEL 26
REMARK VINA RESULT:    -6.617      3.389      8.393
REMARK INTER + INTRA:         -12.949
REMARK INTER:                 -11.240
REMARK INTRA:                  -1.709
REMARK UNBOUND:                -1.498
REMARK  16 active torsions:
REMARK  status: ('A' for Active; 'I' for Inactive)
REMARK    1  A    between atoms: C2_2  and  N2_3 
REMARK       I    between atoms: N2_3  and  C7_12 
REMARK    2  A    between atoms: C3_4  and  O3_5 
REMARK    3  A    between atoms: C4_6  and  O4_7 
REMARK    4  A    between atoms: O4_7  and  C1_19 
REMARK    5  A    between atoms: C5_8  and  C6_10 
REMARK    6  A    between atoms: C6_10  and  O6_11 
REMARK    7  A    between atoms: C2_20  and  N2_21 
REMARK       I    between atoms: N2_21  and  C7_30 
REMARK    8  A    between atoms: C3_22  and  O3_23 
REMARK    9  A    between atoms: C4_24  and  O4_25 
REMARK   10  A    between atoms: O4_25  and  C1_37 
REMARK   11  A    between atoms: C5_26  and  C6_28 
REMARK   12  A    between atoms: C6_28  and  O6_29 
REMARK   13  A    between atoms: C2_38  and  O2_39 
REMARK   14  A    between atoms: C3_40  and  O3_41 
REMARK   15  A    between atoms: C4_42  and  O4_43 
REMARK   16  A    between atoms: C5_44  and  C6_46 
ROOT
HETATM    1  C1  NAG C   2      44.432  14.929  43.423  1.00 45.72     0.178 C 
HETATM    2  C2  NAG C   2      43.893  14.714  44.842  1.00 49.06     0.145 C 
HETATM    3  C3  NAG C   2      42.921  13.532  44.882  1.00 52.65     0.150 C 
HETATM    4  C4  NAG C   2      41.855  13.661  43.802  1.00 54.97     0.057 C 
HETATM    5  C5  NAG C   2      42.519  13.886  42.449  1.00 50.27     0.153 C 
HETATM    6  O5  NAG C   2      43.348  15.055  42.511  1.00 46.44    -0.373 OA
ENDROOT
BRANCH   1   7
HETATM    7  O4  NAG C   1      45.253  16.114  43.427  1.00 39.58     0.000 OA
HETATM    8  HO4 NAG C   1      46.118  16.309  43.384  1.00 47.49     0.000 HD
BRANCH   7   9
HETATM    9  C4  NAG C   1      44.498  17.317  43.518  1.00 34.44     0.057 C 
HETATM   10  C3  NAG C   1      45.127  18.248  44.547  1.00 34.15     0.150 C 
HETATM   11  C2  NAG C   1      44.449  19.626  44.537  1.00 32.59     0.145 C 
HETATM   12  C1  NAG C   1      44.381  20.182  43.108  1.00 28.24     0.178 C 
HETATM   13  O5  NAG C   1      43.757  19.226  42.247  1.00 32.77    -0.373 OA
HETATM   14  C5  NAG C   1      44.489  17.996  42.155  1.00 32.91     0.153 C 
BRANCH  10  15
HETATM   15  O3  NAG C   1      45.018  17.676  45.846  1.00 36.22    -0.393 OA
HETATM   16  HO3 NAG C   1      45.774  17.259  46.050  1.00 43.47     0.210 HD
ENDBRANCH  10  15
BRANCH  11  17
HETATM   17  N2  NAG C   1      45.161  20.544  45.411  1.00 32.25    -0.352 N 
HETATM   18  HN2 NAG C   1      45.796  21.084  45.041  1.00 38.70     0.163 HD
HETATM   19  C7  NAG C   1      44.949  20.633  46.730  1.00 31.56     0.214 C 
HETATM   20  O7  NAG C   1      44.116  19.938  47.305  1.00 31.67    -0.274 OA
HETATM   21  C8  NAG C   1      45.790  21.635  47.461  1.00 31.40     0.117 C 
ENDBRANCH  11  17
BRANCH  14  22
HETATM   22  C6  NAG C   1      43.833  17.167  41.076  1.00 33.57     0.196 C 
BRANCH  22  23
HETATM   23  O6  NAG C   1      44.428  17.399  39.807  1.00 38.40    -0.398 OA
HETATM   24  HO6 NAG C   1      43.831  17.249  39.168  1.00 46.08     0.209 HD
ENDBRANCH  22  23
ENDBRANCH  14  22
ENDBRANCH   7   9
ENDBRANCH   1   7
BRANCH   2  25
HETATM   25  N2  NAG C   2      44.983  14.498  45.781  1.00 46.80    -0.352 N 
HETATM   26  HN2 NAG C   2      45.726  14.057  45.484  1.00 56.16     0.163 HD
HETATM   27  C7  NAG C   2      44.955  14.904  47.055  1.00 45.80     0.214 C 
HETATM   28  O7  NAG C   2      43.992  15.503  47.529  1.00 44.31    -0.274 OA
HETATM   29  C8  NAG C   2      46.174  14.587  47.870  1.00 43.27     0.117 C 
ENDBRANCH   2  25
BRANCH   3  30
HETATM   30  O3  NAG C   2      42.302  13.485  46.163  1.00 54.04    -0.393 OA
HETATM   31  HO3 NAG C   2      42.177  14.312  46.461  1.00 64.84     0.210 HD
ENDBRANCH   3  30
BRANCH   5  32
HETATM   32  C6  NAG C   2      41.530  14.109  41.329  1.00 49.47     0.196 C 
BRANCH  32  33
HETATM   33  O6  NAG C   2      40.742  15.269  41.557  1.00 49.56    -0.398 OA
HETATM   34  HO6 NAG C   2      40.217  15.413  40.855  1.00 59.47     0.209 HD
ENDBRANCH  32  33
ENDBRANCH   5  32
BRANCH   4  35
HETATM   35  O4  NAG C   2      41.088  12.463  43.746  1.00 61.24     0.000 OA
HETATM   36  HO4 NAG C   2      41.623  11.776  43.568  1.00 73.48     0.000 HD
BRANCH  35  37
HETATM   37  C1  MAN C   3      39.686  12.660  44.042  1.00 61.12     0.185 C 
HETATM   38  C2  MAN C   3      38.912  11.725  43.095  1.00 64.56     0.181 C 
HETATM   39  C3  MAN C   3      38.447  12.521  41.887  1.00 65.99     0.180 C 
HETATM   40  C4  MAN C   3      37.405  13.551  42.317  1.00 63.78     0.180 C 
HETATM   41  C5  MAN C   3      37.946  14.421  43.482  1.00 60.29     0.180 C 
HETATM   42  O5  MAN C   3      39.322  14.040  43.904  1.00 59.70    -0.370 OA
BRANCH  38  43
HETATM   43  O2  MAN C   3      37.731  11.202  43.718  1.00 65.84    -0.390 OA
HETATM   44  HO2 MAN C   3      37.471  11.787  44.440  1.00 79.01     0.210 HD
ENDBRANCH  38  43
BRANCH  39  45
HETATM   45  O3  MAN C   3      37.929  11.684  40.852  1.00 68.47    -0.390 OA
HETATM   46  HO3 MAN C   3      37.182  11.211  41.254  1.00 82.16     0.210 HD
ENDBRANCH  39  45
BRANCH  40  47
HETATM   47  O4  MAN C   3      37.070  14.391  41.214  1.00 64.75    -0.390 OA
HETATM   48  HO4 MAN C   3      36.603  15.148  41.602  1.00 77.70     0.210 HD
ENDBRANCH  40  47
BRANCH  41  49
HETATM   49  C6  MAN C   3      37.042  14.395  44.703  1.00 61.73     0.244 C 
HETATM   50  O6  MAN C   3      35.926  13.567  44.386  1.00 62.74    -0.238 OA
ENDBRANCH  41  49
ENDBRANCH  35  37
ENDBRANCH   4  35
TORSDOF 16
ENDMDL
MODEL 27
REMARK VINA RESULT:    -6.583      3.955      8.360
REMARK INTER + INTRA:         -12.892
REMARK INTER:                 -11.024
REMARK INTRA:                  -1.867
REMARK UNBOUND:                -1.498
REMARK  16 active torsions:
REMARK  status: ('A' for Active; 'I' for Inactive)
REMARK    1  A    between atoms: C2_2  and  N2_3 
REMARK       I    between atoms: N2_3  and  C7_12 
REMARK    2  A    between atoms: C3_4  and  O3_5 
REMARK    3  A    between atoms: C4_6  and  O4_7 
REMARK    4  A    between atoms: O4_7  and  C1_19 
REMARK    5  A    between atoms: C5_8  and  C6_10 
REMARK    6  A    between atoms: C6_10  and  O6_11 
REMARK    7  A    between atoms: C2_20  and  N2_21 
REMARK       I    between atoms: N2_21  and  C7_30 
REMARK    8  A    between atoms: C3_22  and  O3_23 
REMARK    9  A    between atoms: C4_24  and  O4_25 
REMARK   10  A    between atoms: O4_25  and  C1_37 
REMARK   11  A    between atoms: C5_26  and  C6_28 
REMARK   12  A    between atoms: C6_28  and  O6_29 
REMARK   13  A    between atoms: C2_38  and  O2_39 
REMARK   14  A    between atoms: C3_40  and  O3_41 
REMARK   15  A    between atoms: C4_42  and  O4_43 
REMARK   16  A    between atoms: C5_44  and  C6_46 
ROOT
HETATM    1  C1  NAG C   2      32.998  16.490  47.111  1.00 45.72     0.178 C 
HETATM    2  C2  NAG C   2      33.680  15.184  47.534  1.00 49.06     0.145 C 
HETATM    3  C3  NAG C   2      35.046  15.040  46.859  1.00 52.65     0.150 C 
HETATM    4  C4  NAG C   2      34.940  15.252  45.354  1.00 54.97     0.057 C 
HETATM    5  C5  NAG C   2      34.232  16.571  45.069  1.00 50.27     0.153 C 
HETATM    6  O5  NAG C   2      32.940  16.564  45.691  1.00 46.44    -0.373 OA
ENDROOT
BRANCH   1   7
HETATM    7  O4  NAG C   1      31.678  16.518  47.691  1.00 39.58     0.000 OA
HETATM    8  HO4 NAG C   1      31.172  15.984  48.188  1.00 47.49     0.000 HD
BRANCH   7   9
HETATM    9  C4  NAG C   1      30.972  17.723  47.416  1.00 34.44     0.057 C 
HETATM   10  C3  NAG C   1      29.797  17.436  46.490  1.00 34.15     0.150 C 
HETATM   11  C2  NAG C   1      28.907  18.675  46.321  1.00 32.59     0.145 C 
HETATM   12  C1  NAG C   1      28.531  19.258  47.690  1.00 28.24     0.178 C 
HETATM   13  O5  NAG C   1      29.717  19.500  48.454  1.00 32.77    -0.373 OA
HETATM   14  C5  NAG C   1      30.458  18.302  48.726  1.00 32.91     0.153 C 
BRANCH  10  15
HETATM   15  O3  NAG C   1      30.277  17.020  45.215  1.00 36.22    -0.393 OA
HETATM   16  HO3 NAG C   1      30.381  17.730  44.692  1.00 43.47     0.210 HD
ENDBRANCH  10  15
BRANCH  11  17
HETATM   17  N2  NAG C   1      27.712  18.338  45.563  1.00 32.25    -0.352 N 
HETATM   18  HN2 NAG C   1      27.252  17.586  45.798  1.00 38.70     0.163 HD
HETATM   19  C7  NAG C   1      27.257  19.059  44.531  1.00 31.56     0.214 C 
HETATM   20  O7  NAG C   1      27.820  20.081  44.150  1.00 31.67    -0.274 OA
HETATM   21  C8  NAG C   1      26.013  18.543  43.871  1.00 31.40     0.117 C 
ENDBRANCH  11  17
BRANCH  14  22
HETATM   22  C6  NAG C   1      31.558  18.671  49.693  1.00 33.57     0.196 C 
BRANCH  22  23
HETATM   23  O6  NAG C   1      31.088  18.695  51.034  1.00 38.40    -0.398 OA
HETATM   24  HO6 NAG C   1      30.417  19.272  51.102  1.00 46.08     0.209 HD
ENDBRANCH  22  23
ENDBRANCH  14  22
ENDBRANCH   7   9
ENDBRANCH   1   7
BRANCH   2  25
HETATM   25  N2  NAG C   2      33.827  15.125  48.980  1.00 46.80    -0.352 N 
HETATM   26  HN2 NAG C   2      34.072  15.886  49.420  1.00 56.16     0.163 HD
HETATM   27  C7  NAG C   2      33.628  14.015  49.700  1.00 45.80     0.214 C 
HETATM   28  O7  NAG C   2      33.297  12.950  49.181  1.00 44.31    -0.274 OA
HETATM   29  C8  NAG C   2      33.831  14.149  51.180  1.00 43.27     0.117 C 
ENDBRANCH   2  25
BRANCH   3  30
HETATM   30  O3  NAG C   2      35.558  13.739  47.125  1.00 54.04    -0.393 OA
HETATM   31  HO3 NAG C   2      35.616  13.283  46.365  1.00 64.84     0.210 HD
ENDBRANCH   3  30
BRANCH   5  32
HETATM   32  C6  NAG C   2      34.008  16.822  43.597  1.00 49.47     0.196 C 
BRANCH  32  33
HETATM   33  O6  NAG C   2      32.748  17.434  43.361  1.00 49.56    -0.398 OA
HETATM   34  HO6 NAG C   2      32.264  16.919  42.823  1.00 59.47     0.209 HD
ENDBRANCH  32  33
ENDBRANCH   5  32
BRANCH   4  35
HETATM   35  O4  NAG C   2      36.245  15.297  44.787  1.00 61.24     0.000 OA
HETATM   36  HO4 NAG C   2      36.600  16.100  44.923  1.00 73.48     0.000 HD
BRANCH  35  37
HETATM   37  C1  MAN C   3      36.667  14.041  44.207  1.00 61.12     0.185 C 
HETATM   38  C2  MAN C   3      38.162  13.893  44.545  1.00 64.56     0.181 C 
HETATM   39  C3  MAN C   3      38.985  14.360  43.356  1.00 65.99     0.180 C 
HETATM   40  C4  MAN C   3      38.779  13.408  42.180  1.00 63.78     0.180 C 
HETATM   41  C5  MAN C   3      37.268  13.233  41.878  1.00 60.29     0.180 C 
HETATM   42  O5  MAN C   3      36.394  14.010  42.800  1.00 59.70    -0.370 OA
BRANCH  38  43
HETATM   43  O2  MAN C   3      38.519  12.524  44.775  1.00 65.84    -0.390 OA
HETATM   44  HO2 MAN C   3      39.415  12.373  44.451  1.00 79.01     0.210 HD
ENDBRANCH  38  43
BRANCH  39  45
HETATM   45  O3  MAN C   3      40.374  14.479  43.670  1.00 68.47    -0.390 OA
HETATM   46  HO3 MAN C   3      40.668  13.576  43.875  1.00 82.16     0.210 HD
ENDBRANCH  39  45
BRANCH  40  47
HETATM   47  O4  MAN C   3      39.438  13.918  41.022  1.00 64.75    -0.390 OA
HETATM   48  HO4 MAN C   3      40.236  13.376  40.921  1.00 77.70     0.210 HD
ENDBRANCH  40  47
BRANCH  41  49
HETATM   49  C6  MAN C   3      36.828  11.778  41.907  1.00 61.73     0.244 C 
HETATM   50  O6  MAN C   3      35.435  11.763  42.208  1.00 62.74    -0.238 OA
ENDBRANCH  41  49
ENDBRANCH  35  37
ENDBRANCH   4  35
TORSDOF 16
ENDMDL
MODEL 28
REMARK VINA RESULT:    -6.580      6.009      9.063
REMARK INTER + INTRA:         -12.886
REMARK INTER:                 -10.072
REMARK INTRA:                  -2.814
REMARK UNBOUND:                -1.498
REMARK  16 active torsions:
REMARK  status: ('A' for Active; 'I' for Inactive)
REMARK    1  A    between atoms: C2_2  and  N2_3 
REMARK       I    between atoms: N2_3  and  C7_12 
REMARK    2  A    between atoms: C3_4  and  O3_5 
REMARK    3  A    between atoms: C4_6  and  O4_7 
REMARK    4  A    between atoms: O4_7  and  C1_19 
REMARK    5  A    between atoms: C5_8  and  C6_10 
REMARK    6  A    between atoms: C6_10  and  O6_11 
REMARK    7  A    between atoms: C2_20  and  N2_21 
REMARK       I    between atoms: N2_21  and  C7_30 
REMARK    8  A    between atoms: C3_22  and  O3_23 
REMARK    9  A    between atoms: C4_24  and  O4_25 
REMARK   10  A    between atoms: O4_25  and  C1_37 
REMARK   11  A    between atoms: C5_26  and  C6_28 
REMARK   12  A    between atoms: C6_28  and  O6_29 
REMARK   13  A    between atoms: C2_38  and  O2_39 
REMARK   14  A    between atoms: C3_40  and  O3_41 
REMARK   15  A    between atoms: C4_42  and  O4_43 
REMARK   16  A    between atoms: C5_44  and  C6_46 
ROOT
HETATM    1  C1  NAG C   2      41.903   8.676  47.149  1.00 45.72     0.178 C 
HETATM    2  C2  NAG C   2      42.811   9.798  46.633  1.00 49.06     0.145 C 
HETATM    3  C3  NAG C   2      42.019  11.093  46.439  1.00 52.65     0.150 C 
HETATM    4  C4  NAG C   2      40.763  10.851  45.612  1.00 54.97     0.057 C 
HETATM    5  C5  NAG C   2      39.961   9.706  46.219  1.00 50.27     0.153 C 
HETATM    6  O5  NAG C   2      40.781   8.531  46.286  1.00 46.44    -0.373 OA
ENDROOT
BRANCH   1   7
HETATM    7  O4  NAG C   1      42.678   7.461  47.209  1.00 39.58     0.000 OA
HETATM    8  HO4 NAG C   1      43.525   7.221  47.096  1.00 47.49     0.000 HD
BRANCH   7   9
HETATM    9  C4  NAG C   1      41.899   6.317  47.544  1.00 34.44     0.057 C 
HETATM   10  C3  NAG C   1      42.121   5.218  46.513  1.00 34.15     0.150 C 
HETATM   11  C2  NAG C   1      41.443   3.909  46.943  1.00 32.59     0.145 C 
HETATM   12  C1  NAG C   1      41.839   3.545  48.381  1.00 28.24     0.178 C 
HETATM   13  O5  NAG C   1      41.566   4.648  49.250  1.00 32.77    -0.373 OA
HETATM   14  C5  NAG C   1      42.324   5.820  48.919  1.00 32.91     0.153 C 
BRANCH  10  15
HETATM   15  O3  NAG C   1      41.603   5.628  45.252  1.00 36.22    -0.393 OA
HETATM   16  HO3 NAG C   1      40.940   6.204  45.377  1.00 43.47     0.210 HD
ENDBRANCH  10  15
BRANCH  11  17
HETATM   17  N2  NAG C   1      41.795   2.836  46.028  1.00 32.25    -0.352 N 
HETATM   18  HN2 NAG C   1      42.493   2.293  46.250  1.00 38.70     0.163 HD
HETATM   19  C7  NAG C   1      41.164   2.607  44.870  1.00 31.56     0.214 C 
HETATM   20  O7  NAG C   1      40.218   3.294  44.495  1.00 31.67    -0.274 OA
HETATM   21  C8  NAG C   1      41.681   1.456  44.059  1.00 31.40     0.117 C 
ENDBRANCH  11  17
BRANCH  14  22
HETATM   22  C6  NAG C   1      42.090   6.826  50.021  1.00 33.57     0.196 C 
BRANCH  22  23
HETATM   23  O6  NAG C   1      43.239   7.632  50.243  1.00 38.40    -0.398 OA
HETATM   24  HO6 NAG C   1      43.536   7.944  49.467  1.00 46.08     0.209 HD
ENDBRANCH  22  23
ENDBRANCH  14  22
ENDBRANCH   7   9
ENDBRANCH   1   7
BRANCH   2  25
HETATM   25  N2  NAG C   2      43.923  10.022  47.545  1.00 46.80    -0.352 N 
HETATM   26  HN2 NAG C   2      43.756   9.993  48.442  1.00 56.16     0.163 HD
HETATM   27  C7  NAG C   2      45.173  10.273  47.141  1.00 45.80     0.214 C 
HETATM   28  O7  NAG C   2      45.476  10.329  45.951  1.00 44.31    -0.274 OA
HETATM   29  C8  NAG C   2      46.183  10.480  48.229  1.00 43.27     0.117 C 
ENDBRANCH   2  25
BRANCH   3  30
HETATM   30  O3  NAG C   2      42.847  12.049  45.786  1.00 54.04    -0.393 OA
HETATM   31  HO3 NAG C   2      43.015  12.723  46.339  1.00 64.84     0.210 HD
ENDBRANCH   3  30
BRANCH   5  32
HETATM   32  C6  NAG C   2      38.738   9.341  45.411  1.00 49.47     0.196 C 
BRANCH  32  33
HETATM   33  O6  NAG C   2      38.969   9.502  44.019  1.00 49.56    -0.398 OA
HETATM   34  HO6 NAG C   2      38.520   8.881  43.570  1.00 59.47     0.209 HD
ENDBRANCH  32  33
ENDBRANCH   5  32
BRANCH   4  35
HETATM   35  O4  NAG C   2      39.960  12.027  45.611  1.00 61.24     0.000 OA
HETATM   36  HO4 NAG C   2      39.549  12.106  46.395  1.00 73.48     0.000 HD
BRANCH  35  37
HETATM   37  C1  MAN C   3      40.065  12.797  44.391  1.00 61.12     0.185 C 
HETATM   38  C2  MAN C   3      38.701  13.484  44.199  1.00 64.56     0.181 C 
HETATM   39  C3  MAN C   3      37.865  12.658  43.236  1.00 65.99     0.180 C 
HETATM   40  C4  MAN C   3      38.493  12.695  41.844  1.00 63.78     0.180 C 
HETATM   41  C5  MAN C   3      39.985  12.278  41.909  1.00 60.29     0.180 C 
HETATM   42  O5  MAN C   3      40.444  11.962  43.289  1.00 59.70    -0.370 OA
BRANCH  38  43
HETATM   43  O2  MAN C   3      38.842  14.782  43.607  1.00 65.84    -0.390 OA
HETATM   44  HO2 MAN C   3      38.209  15.385  44.016  1.00 79.01     0.210 HD
ENDBRANCH  38  43
BRANCH  39  45
HETATM   45  O3  MAN C   3      36.505  13.094  43.186  1.00 68.47    -0.390 OA
HETATM   46  HO3 MAN C   3      36.074  12.515  42.535  1.00 82.16     0.210 HD
ENDBRANCH  39  45
BRANCH  40  47
HETATM   47  O4  MAN C   3      37.791  11.811  40.972  1.00 64.75    -0.390 OA
HETATM   48  HO4 MAN C   3      38.418  11.098  40.772  1.00 77.70     0.210 HD
ENDBRANCH  40  47
BRANCH  41  49
HETATM   49  C6  MAN C   3      40.914  13.327  41.320  1.00 61.73     0.244 C 
HETATM   50  O6  MAN C   3      40.155  14.524  41.163  1.00 62.74    -0.238 OA
ENDBRANCH  41  49
ENDBRANCH  35  37
ENDBRANCH   4  35
TORSDOF 16
ENDMDL
MODEL 29
REMARK VINA RESULT:    -6.496      4.068      6.593
REMARK INTER + INTRA:         -12.740
REMARK INTER:                 -10.711
REMARK INTRA:                  -2.028
REMARK UNBOUND:                -1.498
REMARK  16 active torsions:
REMARK  status: ('A' for Active; 'I' for Inactive)
REMARK    1  A    between atoms: C2_2  and  N2_3 
REMARK       I    between atoms: N2_3  and  C7_12 
REMARK    2  A    between atoms: C3_4  and  O3_5 
REMARK    3  A    between atoms: C4_6  and  O4_7 
REMARK    4  A    between atoms: O4_7  and  C1_19 
REMARK    5  A    between atoms: C5_8  and  C6_10 
REMARK    6  A    between atoms: C6_10  and  O6_11 
REMARK    7  A    between atoms: C2_20  and  N2_21 
REMARK       I    between atoms: N2_21  and  C7_30 
REMARK    8  A    between atoms: C3_22  and  O3_23 
REMARK    9  A    between atoms: C4_24  and  O4_25 
REMARK   10  A    between atoms: O4_25  and  C1_37 
REMARK   11  A    between atoms: C5_26  and  C6_28 
REMARK   12  A    between atoms: C6_28  and  O6_29 
REMARK   13  A    between atoms: C2_38  and  O2_39 
REMARK   14  A    between atoms: C3_40  and  O3_41 
REMARK   15  A    between atoms: C4_42  and  O4_43 
REMARK   16  A    between atoms: C5_44  and  C6_46 
ROOT
HETATM    1  C1  NAG C   2      39.340  11.844  44.316  1.00 45.72     0.178 C 
HETATM    2  C2  NAG C   2      39.990  10.725  45.139  1.00 49.06     0.145 C 
HETATM    3  C3  NAG C   2      41.516  10.835  45.096  1.00 52.65     0.150 C 
HETATM    4  C4  NAG C   2      42.019  10.954  43.664  1.00 54.97     0.057 C 
HETATM    5  C5  NAG C   2      41.285  12.087  42.955  1.00 50.27     0.153 C 
HETATM    6  O5  NAG C   2      39.873  11.842  42.997  1.00 46.44    -0.373 OA
ENDROOT
BRANCH   1   7
HETATM    7  O4  NAG C   1      37.915  11.627  44.305  1.00 39.58     0.000 OA
HETATM    8  HO4 NAG C   1      37.222  11.809  44.831  1.00 47.49     0.000 HD
BRANCH   7   9
HETATM    9  C4  NAG C   1      37.462  10.940  43.143  1.00 34.44     0.057 C 
HETATM   10  C3  NAG C   1      36.948   9.557  43.526  1.00 34.15     0.150 C 
HETATM   11  C2  NAG C   1      36.283   8.863  42.329  1.00 32.59     0.145 C 
HETATM   12  C1  NAG C   1      35.247   9.788  41.676  1.00 28.24     0.178 C 
HETATM   13  O5  NAG C   1      35.856  11.041  41.350  1.00 32.77    -0.373 OA
HETATM   14  C5  NAG C   1      36.339  11.743  42.503  1.00 32.91     0.153 C 
BRANCH  10  15
HETATM   15  O3  NAG C   1      38.024   8.756  44.001  1.00 36.22    -0.393 OA
HETATM   16  HO3 NAG C   1      38.598   8.608  43.341  1.00 43.47     0.210 HD
ENDBRANCH  10  15
BRANCH  11  17
HETATM   17  N2  NAG C   1      35.664   7.616  42.750  1.00 32.25    -0.352 N 
HETATM   18  HN2 NAG C   1      35.084   7.641  43.454  1.00 38.70     0.163 HD
HETATM   19  C7  NAG C   1      35.906   6.432  42.175  1.00 31.56     0.214 C 
HETATM   20  O7  NAG C   1      36.675   6.312  41.226  1.00 31.67    -0.274 OA
HETATM   21  C8  NAG C   1      35.175   5.260  42.760  1.00 31.40     0.117 C 
ENDBRANCH  11  17
BRANCH  14  22
HETATM   22  C6  NAG C   1      36.769  13.115  42.040  1.00 33.57     0.196 C 
BRANCH  22  23
HETATM   23  O6  NAG C   1      37.983  13.060  41.305  1.00 38.40    -0.398 OA
HETATM   24  HO6 NAG C   1      38.656  13.319  41.824  1.00 46.08     0.209 HD
ENDBRANCH  22  23
ENDBRANCH  14  22
ENDBRANCH   7   9
ENDBRANCH   1   7
BRANCH   2  25
HETATM   25  N2  NAG C   2      39.522  10.761  46.516  1.00 46.80    -0.352 N 
HETATM   26  HN2 NAG C   2      39.425  11.575  46.917  1.00 56.16     0.163 HD
HETATM   27  C7  NAG C   2      39.233   9.667  47.228  1.00 45.80     0.214 C 
HETATM   28  O7  NAG C   2      39.339   8.535  46.760  1.00 44.31    -0.274 OA
HETATM   29  C8  NAG C   2      38.768   9.905  48.634  1.00 43.27     0.117 C 
ENDBRANCH   2  25
BRANCH   3  30
HETATM   30  O3  NAG C   2      42.079   9.680  45.708  1.00 54.04    -0.393 OA
HETATM   31  HO3 NAG C   2      42.464   9.909  46.474  1.00 64.84     0.210 HD
ENDBRANCH   3  30
BRANCH   5  32
HETATM   32  C6  NAG C   2      41.663  12.221  41.498  1.00 49.47     0.196 C 
BRANCH  32  33
HETATM   33  O6  NAG C   2      40.516  12.400  40.679  1.00 49.56    -0.398 OA
HETATM   34  HO6 NAG C   2      40.749  12.337  39.825  1.00 59.47     0.209 HD
ENDBRANCH  32  33
ENDBRANCH   5  32
BRANCH   4  35
HETATM   35  O4  NAG C   2      43.413  11.241  43.671  1.00 61.24     0.000 OA
HETATM   36  HO4 NAG C   2      43.849  10.607  43.227  1.00 73.48     0.000 HD
BRANCH  35  37
HETATM   37  C1  MAN C   3      43.743  12.486  44.331  1.00 61.12     0.185 C 
HETATM   38  C2  MAN C   3      45.281  12.561  44.359  1.00 64.56     0.181 C 
HETATM   39  C3  MAN C   3      45.773  12.075  45.712  1.00 65.99     0.180 C 
HETATM   40  C4  MAN C   3      45.339  13.053  46.802  1.00 63.78     0.180 C 
HETATM   41  C5  MAN C   3      43.809  13.300  46.733  1.00 60.29     0.180 C 
HETATM   42  O5  MAN C   3      43.144  12.549  45.633  1.00 59.70    -0.370 OA
BRANCH  38  43
HETATM   43  O2  MAN C   3      45.746  13.910  44.216  1.00 65.84    -0.390 OA
HETATM   44  HO2 MAN C   3      46.252  13.983  43.398  1.00 79.01     0.210 HD
ENDBRANCH  38  43
BRANCH  39  45
HETATM   45  O3  MAN C   3      47.190  11.889  45.739  1.00 68.47    -0.390 OA
HETATM   46  HO3 MAN C   3      47.425  11.848  46.681  1.00 82.16     0.210 HD
ENDBRANCH  39  45
BRANCH  40  47
HETATM   47  O4  MAN C   3      45.677  12.530  48.085  1.00 64.75    -0.390 OA
HETATM   48  HO4 MAN C   3      46.246  13.203  48.493  1.00 77.70     0.210 HD
ENDBRANCH  40  47
BRANCH  41  49
HETATM   49  C6  MAN C   3      43.458  14.772  46.596  1.00 61.73     0.244 C 
HETATM   50  O6  MAN C   3      44.679  15.483  46.409  1.00 62.74    -0.238 OA
ENDBRANCH  41  49
ENDBRANCH  35  37
ENDBRANCH   4  35
TORSDOF 16
ENDMDL
MODEL 30
REMARK VINA RESULT:    -6.400      4.448     10.285
REMARK INTER + INTRA:         -12.575
REMARK INTER:                 -11.077
REMARK INTRA:                  -1.498
REMARK UNBOUND:                -1.498
REMARK  16 active torsions:
REMARK  status: ('A' for Active; 'I' for Inactive)
REMARK    1  A    between atoms: C2_2  and  N2_3 
REMARK       I    between atoms: N2_3  and  C7_12 
REMARK    2  A    between atoms: C3_4  and  O3_5 
REMARK    3  A    between atoms: C4_6  and  O4_7 
REMARK    4  A    between atoms: O4_7  and  C1_19 
REMARK    5  A    between atoms: C5_8  and  C6_10 
REMARK    6  A    between atoms: C6_10  and  O6_11 
REMARK    7  A    between atoms: C2_20  and  N2_21 
REMARK       I    between atoms: N2_21  and  C7_30 
REMARK    8  A    between atoms: C3_22  and  O3_23 
REMARK    9  A    between atoms: C4_24  and  O4_25 
REMARK   10  A    between atoms: O4_25  and  C1_37 
REMARK   11  A    between atoms: C5_26  and  C6_28 
REMARK   12  A    between atoms: C6_28  and  O6_29 
REMARK   13  A    between atoms: C2_38  and  O2_39 
REMARK   14  A    between atoms: C3_40  and  O3_41 
REMARK   15  A    between atoms: C4_42  and  O4_43 
REMARK   16  A    between atoms: C5_44  and  C6_46 
ROOT
HETATM    1  C1  NAG C   2      46.300  17.640  41.408  1.00 45.72     0.178 C 
HETATM    2  C2  NAG C   2      45.789  16.825  40.214  1.00 49.06     0.145 C 
HETATM    3  C3  NAG C   2      44.272  16.636  40.294  1.00 52.65     0.150 C 
HETATM    4  C4  NAG C   2      43.856  16.105  41.660  1.00 54.97     0.057 C 
HETATM    5  C5  NAG C   2      44.439  16.991  42.755  1.00 50.27     0.153 C 
HETATM    6  O5  NAG C   2      45.867  17.037  42.621  1.00 46.44    -0.373 OA
ENDROOT
BRANCH   1   7
HETATM    7  O4  NAG C   1      47.739  17.693  41.334  1.00 39.58     0.000 OA
HETATM    8  HO4 NAG C   1      48.388  17.251  40.921  1.00 47.49     0.000 HD
BRANCH   7   9
HETATM    9  C4  NAG C   1      48.301  18.736  42.124  1.00 34.44     0.057 C 
HETATM   10  C3  NAG C   1      48.894  18.156  43.402  1.00 34.15     0.150 C 
HETATM   11  C2  NAG C   1      49.670  19.223  44.187  1.00 32.59     0.145 C 
HETATM   12  C1  NAG C   1      50.670  19.944  43.273  1.00 28.24     0.178 C 
HETATM   13  O5  NAG C   1      49.990  20.455  42.123  1.00 32.77    -0.373 OA
HETATM   14  C5  NAG C   1      49.396  19.425  41.321  1.00 32.91     0.153 C 
BRANCH  10  15
HETATM   15  O3  NAG C   1      47.854  17.629  44.220  1.00 36.22    -0.393 OA
HETATM   16  HO3 NAG C   1      48.200  17.061  44.808  1.00 43.47     0.210 HD
ENDBRANCH  10  15
BRANCH  11  17
HETATM   17  N2  NAG C   1      50.355  18.617  45.318  1.00 32.25    -0.352 N 
HETATM   18  HN2 NAG C   1      51.169  18.234  45.172  1.00 38.70     0.163 HD
HETATM   19  C7  NAG C   1      49.852  18.576  46.558  1.00 31.56     0.214 C 
HETATM   20  O7  NAG C   1      48.760  19.064  46.837  1.00 31.67    -0.274 OA
HETATM   21  C8  NAG C   1      50.707  17.898  47.588  1.00 31.40     0.117 C 
ENDBRANCH  11  17
BRANCH  14  22
HETATM   22  C6  NAG C   1      48.893  20.080  40.056  1.00 33.57     0.196 C 
BRANCH  22  23
HETATM   23  O6  NAG C   1      48.096  21.220  40.342  1.00 38.40    -0.398 OA
HETATM   24  HO6 NAG C   1      47.902  21.643  39.585  1.00 46.08     0.209 HD
ENDBRANCH  22  23
ENDBRANCH  14  22
ENDBRANCH   7   9
ENDBRANCH   1   7
BRANCH   2  25
HETATM   25  N2  NAG C   2      46.147  17.469  38.959  1.00 46.80    -0.352 N 
HETATM   26  HN2 NAG C   2      46.442  16.944  38.274  1.00 56.16     0.163 HD
HETATM   27  C7  NAG C   2      46.075  18.789  38.758  1.00 45.80     0.214 C 
HETATM   28  O7  NAG C   2      45.690  19.564  39.632  1.00 44.31    -0.274 OA
HETATM   29  C8  NAG C   2      46.490  19.268  37.399  1.00 43.27     0.117 C 
ENDBRANCH   2  25
BRANCH   3  30
HETATM   30  O3  NAG C   2      43.866  15.723  39.281  1.00 54.04    -0.393 OA
HETATM   31  HO3 NAG C   2      44.449  15.055  39.233  1.00 64.84     0.210 HD
ENDBRANCH   3  30
BRANCH   5  32
HETATM   32  C6  NAG C   2      44.146  16.487  44.148  1.00 49.47     0.196 C 
BRANCH  32  33
HETATM   33  O6  NAG C   2      45.128  16.927  45.076  1.00 49.56    -0.398 OA
HETATM   34  HO6 NAG C   2      45.927  16.920  44.688  1.00 59.47     0.209 HD
ENDBRANCH  32  33
ENDBRANCH   5  32
BRANCH   4  35
HETATM   35  O4  NAG C   2      42.436  16.119  41.763  1.00 61.24     0.000 OA
HETATM   36  HO4 NAG C   2      42.114  16.821  41.324  1.00 73.48     0.000 HD
BRANCH  35  37
HETATM   37  C1  MAN C   3      41.898  14.987  42.485  1.00 61.12     0.185 C 
HETATM   38  C2  MAN C   3      42.061  13.770  41.556  1.00 64.56     0.181 C 
HETATM   39  C3  MAN C   3      40.750  13.529  40.826  1.00 65.99     0.180 C 
HETATM   40  C4  MAN C   3      39.677  13.090  41.821  1.00 63.78     0.180 C 
HETATM   41  C5  MAN C   3      39.576  14.100  42.993  1.00 60.29     0.180 C 
HETATM   42  O5  MAN C   3      40.540  15.228  42.878  1.00 59.70    -0.370 OA
BRANCH  38  43
HETATM   43  O2  MAN C   3      42.340  12.574  42.296  1.00 65.84    -0.390 OA
HETATM   44  HO2 MAN C   3      43.250  12.609  42.618  1.00 79.01     0.210 HD
ENDBRANCH  38  43
BRANCH  39  45
HETATM   45  O3  MAN C   3      40.882  12.571  39.774  1.00 68.47    -0.390 OA
HETATM   46  HO3 MAN C   3      41.269  13.060  39.029  1.00 82.16     0.210 HD
ENDBRANCH  39  45
BRANCH  40  47
HETATM   47  O4  MAN C   3      38.415  12.998  41.164  1.00 64.75    -0.390 OA
HETATM   48  HO4 MAN C   3      37.769  12.845  41.871  1.00 77.70     0.210 HD
ENDBRANCH  40  47
BRANCH  41  49
HETATM   49  C6  MAN C   3      39.760  13.444  44.351  1.00 61.73     0.244 C 
HETATM   50  O6  MAN C   3      40.094  12.078  44.120  1.00 62.74    -0.238 OA
ENDBRANCH  41  49
ENDBRANCH  35  37
ENDBRANCH   4  35
TORSDOF 16
ENDMDL
