REMARK  16 active torsions:
REMARK  status: ('A' for Active; 'I' for Inactive)
REMARK    1  A    between atoms: C2_2  and  N2_3 
REMARK       I    between atoms: N2_3  and  C7_12 
REMARK    2  A    between atoms: C3_4  and  O3_5 
REMARK    3  A    between atoms: C4_6  and  O4_7 
REMARK    4  A    between atoms: O4_7  and  C1_19 
REMARK    5  A    between atoms: C5_8  and  C6_10 
REMARK    6  A    between atoms: C6_10  and  O6_11 
REMARK    7  A    between atoms: C2_20  and  N2_21 
REMARK       I    between atoms: N2_21  and  C7_30 
REMARK    8  A    between atoms: C3_22  and  O3_23 
REMARK    9  A    between atoms: C4_24  and  O4_25 
REMARK   10  A    between atoms: O4_25  and  C1_37 
REMARK   11  A    between atoms: C5_26  and  C6_28 
REMARK   12  A    between atoms: C6_28  and  O6_29 
REMARK   13  A    between atoms: C2_38  and  O2_39 
REMARK   14  A    between atoms: C3_40  and  O3_41 
REMARK   15  A    between atoms: C4_42  and  O4_43 
REMARK   16  A    between atoms: C5_44  and  C6_46 
ROOT
HETATM    1  C1  NAG C   2      37.837  16.268  40.772  1.00 45.72     0.178 C 
HETATM    2  C2  NAG C   2      38.177  17.755  40.927  1.00 49.06     0.145 C 
HETATM    3  C3  NAG C   2      37.846  18.244  42.339  1.00 52.65     0.150 C 
HETATM    4  C4  NAG C   2      36.424  17.866  42.733  1.00 54.97     0.057 C 
HETATM    5  C5  NAG C   2      36.212  16.372  42.517  1.00 50.27     0.153 C 
HETATM    6  O5  NAG C   2      36.484  16.043  41.148  1.00 46.44    -0.373 OA
ENDROOT
BRANCH   1   7
HETATM    7  O4  NAG C   1      38.068  15.893  39.399  1.00 39.58     0.000 OA
HETATM    8  HO4 NAG C   1      38.205  15.145  38.940  1.00 47.49     0.000 HD
BRANCH   7   9
HETATM    9  C4  NAG C   1      38.080  17.006  38.510  1.00 34.44     0.057 C 
HETATM   10  C3  NAG C   1      37.038  16.807  37.416  1.00 34.15     0.150 C 
HETATM   11  C2  NAG C   1      36.896  18.067  36.551  1.00 32.59     0.145 C 
HETATM   12  C1  NAG C   1      36.688  19.305  37.433  1.00 28.24     0.178 C 
HETATM   13  O5  NAG C   1      37.737  19.388  38.403  1.00 32.77    -0.373 OA
HETATM   14  C5  NAG C   1      37.758  18.268  39.298  1.00 32.91     0.153 C 
BRANCH  10  15
HETATM   15  O3  NAG C   1      37.407  15.705  36.593  1.00 36.22    -0.393 OA
HETATM   16  HO3 NAG C   1      36.963  14.981  36.851  1.00 43.47     0.210 HD
ENDBRANCH  10  15
BRANCH  11  17
HETATM   17  N2  NAG C   1      35.792  17.913  35.616  1.00 32.25    -0.352 N 
HETATM   18  HN2 NAG C   1      34.944  18.036  35.928  1.00 38.70     0.163 HD
HETATM   19  C7  NAG C   1      35.948  17.587  34.327  1.00 31.56     0.214 C 
HETATM   20  O7  NAG C   1      37.055  17.400  33.830  1.00 31.67    -0.274 OA
HETATM   21  C8  NAG C   1      34.686  17.467  33.526  1.00 31.40     0.117 C 
ENDBRANCH  11  17
BRANCH  14  22
HETATM   22  C6  NAG C   1      38.770  18.579  40.375  1.00 33.57     0.196 C 
BRANCH  22  23
HETATM   23  O6  NAG C   1      39.340  19.869  40.199  1.00 38.40    -0.398 OA
HETATM   24  HO6 NAG C   1      39.890  20.044  40.873  1.00 46.08     0.209 HD
ENDBRANCH  22  23
ENDBRANCH  14  22
ENDBRANCH   7   9
ENDBRANCH   1   7
BRANCH   2  25
HETATM   25  N2  NAG C   2      39.581  17.996  40.629  1.00 46.80    -0.352 N 
HETATM   26  HN2 NAG C   2      40.126  18.263  41.310  1.00 56.16     0.163 HD
HETATM   27  C7  NAG C   2      40.114  17.852  39.411  1.00 45.80     0.214 C 
HETATM   28  O7  NAG C   2      39.445  17.497  38.442  1.00 44.31    -0.274 OA
HETATM   29  C8  NAG C   2      41.580  18.149  39.299  1.00 43.27     0.117 C 
ENDBRANCH   2  25
BRANCH   3  30
HETATM   30  O3  NAG C   2      37.996  19.659  42.384  1.00 54.04    -0.393 OA
HETATM   31  HO3 NAG C   2      38.446  19.885  43.116  1.00 64.84     0.210 HD
ENDBRANCH   3  30
BRANCH   5  32
HETATM   32  C6  NAG C   2      34.798  15.923  42.803  1.00 49.47     0.196 C 
BRANCH  32  33
HETATM   33  O6  NAG C   2      34.070  15.705  41.603  1.00 49.56    -0.398 OA
HETATM   34  HO6 NAG C   2      33.316  15.275  41.788  1.00 59.47     0.209 HD
ENDBRANCH  32  33
ENDBRANCH   5  32
BRANCH   4  35
HETATM   35  O4  NAG C   2      36.215  18.168  44.108  1.00 61.24     0.000 OA
HETATM   36  HO4 NAG C   2      36.135  19.047  44.209  1.00 73.48     0.000 HD
BRANCH  35  37
HETATM   37  C1  MAN C   3      36.130  16.995  44.950  1.00 61.12     0.185 C 
HETATM   38  C2  MAN C   3      37.492  16.877  45.659  1.00 64.56     0.181 C 
HETATM   39  C3  MAN C   3      38.358  15.886  44.901  1.00 65.99     0.180 C 
HETATM   40  C4  MAN C   3      37.762  14.484  45.017  1.00 63.78     0.180 C 
HETATM   41  C5  MAN C   3      36.273  14.488  44.585  1.00 60.29     0.180 C 
HETATM   42  O5  MAN C   3      35.785  15.836  44.181  1.00 59.70    -0.370 OA
BRANCH  38  43
HETATM   43  O2  MAN C   3      37.352  16.362  46.990  1.00 65.84    -0.390 OA
HETATM   44  HO2 MAN C   3      37.634  17.036  47.620  1.00 79.01     0.210 HD
ENDBRANCH  38  43
BRANCH  39  45
HETATM   45  O3  MAN C   3      39.714  15.894  45.351  1.00 68.47    -0.390 OA
HETATM   46  HO3 MAN C   3      40.221  16.302  44.630  1.00 82.16     0.210 HD
ENDBRANCH  39  45
BRANCH  40  47
HETATM   47  O4  MAN C   3      38.492  13.577  44.194  1.00 64.75    -0.390 OA
HETATM   48  HO4 MAN C   3      38.515  13.990  43.316  1.00 77.70     0.210 HD
ENDBRANCH  40  47
BRANCH  41  49
HETATM   49  C6  MAN C   3      35.348  13.942  45.660  1.00 61.73     0.244 C 
HETATM   50  O6  MAN C   3      35.628  12.551  45.793  1.00 62.74    -0.238 OA
ENDBRANCH  41  49
ENDBRANCH  35  37
ENDBRANCH   4  35
TORSDOF 16
